 &NAMPERTPAR
   GCVEZ_MAX=0.3,
   XPERTFLUX_MAX=0.5,
   XPERTFLUX_MIN=-0.5,
 /
