 &NAMPERTPAR
   DETRPEN_MAX=0.00015,
   DETRPEN_MIN=0.000075,
   ENTRORG_MAX=0.0019,
   ENTRORG_MIN=0.0016,
   RMFDEPS_MAX=0.2,
   RMFDEPS_MIN=0.09,
   RPRCON_MAX=0.004,
   RPRCON_MIN=0.0015,
   XPERTFLUX_MAX=0.5,
   XPERTFLUX_MIN=-0.5,
 /
