 &NAM_DIAG_SURFN
 /
 &NAM_DIAG_ISBAN
 /
 &NAM_SURF_ATM
 /
 &NAM_SURF_CSTS
 /
 &NAM_WRITE_DIAG_SURFN
 /
 &NAM_WRITE_SURF_ATM
 /
 &NAM_IO_OFFLINE
 /
 &NAM_ISBAN
 /
 &NAM_NACVEG
 /
 &NAM_PREP_ISBA
 /
 &NAM_PREP_ISBA_SNOW
 /
 &NAM_PREP_SEAFLUX
 /
 &NAM_PREP_SURF_ATM
 /
 &NAM_PREP_WATFLUX
 /
 &NAM_SEAFLUXN
 /
 &NAM_SEAICEN
 /
 &NAM_SSON
 /

