 &NACIETEO
 /
 &NACOBS
 /
 &NACTAN
 /
 &NACTEX
 /
 &NACVEG
 /
 &NADOCK
 /
 &NAEAEM7
 /
 &NAEAER
 /
 &NAECOAPHY
 /
 &NAEPHLI
 /
 &NAEPHY
 /
 &NAERAD
 /
 &NAERCLI
 /
 &NAETLDIAG
 /
 &NAEVOL
 /
 &NAIMPO
 /
 &NALORI
 /
 &NAMACV
 /
 &NAMAERDET
 /
 &NAMAFN
 /
 &NAMARG
   CNMEXP='CEXP',
   LSLAG=.TRUE.,
   NCONF=2,
   NSUPERSEDE=1,
 /
 &NAMARPHY
 /
 &NAMCA
 /
 &NAMCAPE
 /
 &NAMCFU
 /
 &NAMCHEM
 /
 &NAMCHET
 /
 &NAMCHK
 /
 &NAMCLA
 /
 &NAMCLDP
 /
 &NAMCLI
 /
 &NAMCLOP15
 /
 &NAMCLTC
 /
 &NAMCMEM_MW
 /
 &NAMCOK
 /
 &NAMCOM
 /
 &NAMCOMPO
 /
 &NAMCOSJO
   LTC=.FALSE.,
   RBGQC(27,1,1)=2.25,
   RBGQC(27,1,2)=4.,
   RBGQC(27,1,3)=6.25,
   SIGMAO_COEF(7)=1.15,
 /
 &NAMCOUPLO4
 /
 &NAMCT0
   LOBS=.TRUE.,
   LOBSC1=.TRUE.,
   LSCREEN=.TRUE.,
   LSCREEN_OPENMP=.FALSE.,
   LSIMOB=.FALSE.,
   LSPRT=.TRUE.,
   NCNTVAR=2,
   NFPOS=0,
   NFRGDI=10000,
   NFRHIS=10000,
   NFRPOS=10000,
   NFRSDI=10000,
   NGDITS(0)=1,
   NGDITS(1)=1,
   NHISTS(0)=1,
   NHISTS(1)=1,
   NPOSTS(0)=1,
   NPOSTS(1)=1,
   NSDITS(0)=0,
   NSDITS(1)=0,
 /
 &NAMCT1
   LRFILAF=.FALSE.,
 /
 &NAMCUMF
 /
 &NAMCUMFS
 /
 &NAMCVER
 /
 &NAMCVMNH
 /
 &NAMDDH
 /
 &NAMDFI
 /
 &NAMDIM
   NPROMA=-16,
 /
 &NAMDIMO
 /
 &NAMDIM_TRAJ
 /
 &NAMDPHY
 /
 &NAMDPRECIPS
 /
 &NAMDVISI
 /
 &NAMDYN
 /
 &NAMDYNA
   LNESC=.FALSE.,
   LPC_CHEAP=.FALSE.,
   LPC_FULL=.FALSE.,
   LSETTLS=.TRUE.,
   LSETTLST=.TRUE.,
 /
 &NAMDYNCORE
 /
 &NAMEMIS_CONF
   LATLAS_EMIS(16)=.TRUE.,
   LATLAS_GMI=.FALSE.,
   LATLAS_MWHS2=.FALSE.,
   LATLAS_SAPHIR=.TRUE.,
   LDYN_AMSU=.TRUE.,
   LDYN_ATMS=.TRUE.,
   LDYN_EMIS(16)=.FALSE.,
   LDYN_GMI=.TRUE.,
   LDYN_MWHS2=.TRUE.,
   LDYN_SSMIS=.TRUE.,
   LDYN_TSKIN(16)=.TRUE.,
   LICE_AMSU=.TRUE.,
   LICE_ATMS=.TRUE.,
   LICE_SSMIS=.TRUE.,
   LSKIN_SEV=.TRUE.,
   LUSE_DYN_TSKIN(16)=.TRUE.,
   LUSE_DYN_TSKIN(29)=.TRUE.,
   LUSE_TELSEM=.FALSE.,
   MTSKIN_CHAN(16)=1194,
 /
 &NAMENKF
 /
 &NAMENSCOV
 /
 &NAMFA
   YFAG='GRAUPEL',
   YFAI='ICE_CRYSTAL',
   YFAI%NBITS=12,
   YFAL='CLOUD_WATER',
   YFAL%NBITS=12,
   YFAR='RAIN',
   YFAR%NBITS=12,
   YFAS='SNOW',
   YFAS%NBITS=12,
 /
 &NAMFAINIT
 /
 &NAMFPC
 /
 &NAMFPD
 /
 &NAMFPDY2
 /
 &NAMFPDYF
 /
 &NAMFPDYH
 /
 &NAMFPDYI
 /
 &NAMFPDYP
 /
 &NAMFPDYS
 /
 &NAMFPDYT
 /
 &NAMFPDYV
 /
 &NAMFPF
 /
 &NAMFPG
 /
 &NAMFPIOS
   LIOFPED=.FALSE.,
   LIOFPEP=.FALSE.,
 /
 &NAMFPMOVE
 /
 &NAMFPOBJ
 /
 &NAMFPPHY
 /
 &NAMFPSC2
   NFPROMA=-50,
 /
 &NAMFPSC2_DEP
   NFPROMA_DEP=-50,
 /
 &NAMGEM
 /
 &NAMGFL
   YG_NL%CNAME='GRAUPEL',
   YG_NL%LGP=.TRUE.,
   YG_NL%LSP=.FALSE.,
   YG_NL%NREQIN=1,
   YI_NL%CNAME='ICE_CRYSTAL',
   YI_NL%LGP=.TRUE.,
   YI_NL%LSP=.FALSE.,
   YI_NL%NREQIN=1,
   YL_NL%CNAME='CLOUD_WATER',
   YL_NL%LGP=.TRUE.,
   YL_NL%LSP=.FALSE.,
   YL_NL%NREQIN=1,
   YQ_NL%CNAME='HUMI.SPECIFI',
   YQ_NL%LGP=.TRUE.,
   YQ_NL%LSP=.FALSE.,
   YQ_NL%NREQIN=1,
   YR_NL%CNAME='RAIN',
   YR_NL%LGP=.TRUE.,
   YR_NL%LSP=.FALSE.,
   YR_NL%NREQIN=1,
   YS_NL%CNAME='SNOW',
   YS_NL%LGP=.TRUE.,
   YS_NL%LSP=.FALSE.,
   YS_NL%NREQIN=1,
 /
 &NAMGRIB
 /
 &NAMGWD
 /
 &NAMGWDIAG
 /
 &NAMGWWMS
 /
 &NAMIAU
 /
 &NAMICE
 /
 &NAMINI
 /
 &NAMINTFLEX
 /
 &NAMIOMI
 /
 &NAMIOS
 /
 &NAMIO_SERV
 /
 &NAMJBCODES
 /
 &NAMJG
   CONFIG%REDNMC=1.,
 /
 &NAMLCZ
 /
 &NAMLIMA
 /
 &NAMLSFORC
 /
 &NAMMARS
 /
 &NAMMCC
 /
 &NAMMCUF
 /
 &NAMMETHOX
 /
 &NAMMKODB
   LBIASCV=.TRUE.,
   LHBIASC=.FALSE.,
   LSCATINT=.TRUE.,
   LTBIASBUFR=.TRUE.,
   LTBIASC=.FALSE.,
   L_NEW_RH_BIAS=.TRUE.,
   L_NEW_T_BIAS=.TRUE.,
   L_SCAT_BIASSIG=.FALSE.,
   NBIASCOR=0,
 /
 &NAMMODERR
 /
 &NAMMTS
 /
 &NAMMWAVE
 /
 &NAMNORGWD
 /
 &NAMNPROF
   NOBSPROFS(13)=225,
 /
 &NAMNUD
 /
 &NAMNUDGLH
 /
 &NAMOBS
   LAIREP_DPDT=.FALSE.,
   LCACHMT=.TRUE.,
   LCAPACH=.TRUE.,
   LMKCMARPL(2,9)=.TRUE.,
   LRSTBIAS_ODB=.TRUE.,
   LSAATOPZTD=.TRUE.,
   LSLRW10=.FALSE.,
   L_F_SCR_WORK_TS=.FALSE.,
   NSCATT_THIN=1,
 /
 &NAMONEDVAR
 /
 &NAMOOPS
 /
 &NAMOPH
 /
 &NAMOPTCMEM
 /
 &NAMPAR0
   LMPOFF=.FALSE.,
   MBX_SIZE=2048000000,
   MP_TYPE=2,
   NOUTPUT=1,
   NPRGPEW=1,
   NPRGPNS='NBPROC',
   NPROC='NBPROC',
   NPRTRV=1,
   NPRTRW='NBPROC',
 /
 &NAMPAR1
   LSPLIT=.FALSE.,
   NCOMBFLEN=1800000,
   NSTRIN='NBPROC',
   NSTROUT=8,
 /
 &NAMPARAR
 /
 &NAMPERTOBS
 /
 &NAMPERTPAR
 /
 &NAMPHMSE
 /
 &NAMPHY
   LAERODES=.TRUE.,
   LAEROLAN=.TRUE.,
   LAEROSEA=.TRUE.,
   LAEROSOO=.TRUE.,
   LO3ABC=.TRUE.,
   LRAY=.FALSE.,
   LVGSN=.TRUE.,
 /
 &NAMPHY0
   EDK=5.,
   USURIC=0.175,
   USURICE=0.5,
   USURICL=1.,
   USURID=0.1,
 /
 &NAMPHY1
 /
 &NAMPHY2
 /
 &NAMPHY3
 /
 &NAMPHYDS
 /
 &NAMPPC
 /
 &NAMPPVI
 /
 &NAMPRE
 /
 &NAMPSOT
 /
 &NAMRAD15
 /
 &NAMRADCMEM
 /
 &NAMRCF
 /
 &NAMRCOEF
 /
 &NAMRES
 /
 &NAMRGRI
 /
 &NAMRINC
 /
 &NAMRIP
   CSTOP='FCSTOP',
   TSTEP='TIMESTEP',
 /
 &NAMRIP0
 /
 &NAMRLX
 /
 &NAMSATS
   LCO2_DIAG_AIRS=.FALSE.,
   LCO2_DIAG_IASI=.FALSE.,
   LPARTIAL_COEF_FILES=.TRUE.,
   MEMIS_SW=1,
 /
 &NAMSATSIM
 /
 &NAMSCC
   ASCAT_XYGRID=12500.,
   LSCDPR=.FALSE.,
   LSCRE4D=.FALSE.,
   NSCAWSOLMAX(2)=2,
   NSCAWSOLMAX(3)=4,
   NTHINSCA=1,
   NTHINSCA_GEOM=0,
   RFIND_AIREP=25000.,
   RFIND_RAD1C(0)=139000.,
   RFIND_RAD1C(1)=278000.,
   RFIND_RAD1C(2)=278000.,
   RFIND_RAD1C(3)=80000.,
   RFIND_RAD1C(4)=139000.,
   RFIND_RAD1C(6)=139000.,
   RFIND_RAD1C(10)=139000.,
   RFIND_RAD1C(11)=139000.,
   RFIND_RAD1C(15)=139000.,
   RFIND_RAD1C(16)=80000.,
   RFIND_RAD1C(19)=139000.,
   RFIND_RAD1C(20)=139000.,
   RFIND_RAD1C(27)=139000.,
   RFIND_RAD1C(73)=139000.,
   RFIND_RADAR=10340,
   RFIND_SCATT=45000,
   RMIND_RAD1C(0)=69500.,
   RMIND_RAD1C(1)=139000.,
   RMIND_RAD1C(2)=139000.,
   RMIND_RAD1C(3)=40000.,
   RMIND_RAD1C(4)=69500.,
   RMIND_RAD1C(6)=69500.,
   RMIND_RAD1C(10)=69500.,
   RMIND_RAD1C(11)=69500.,
   RMIND_RAD1C(15)=69500.,
   RMIND_RAD1C(16)=40000.,
   RMIND_RAD1C(19)=69500.,
   RMIND_RAD1C(20)=69500.,
   RMIND_RAD1C(27)=69500.,
   RMIND_RAD1C(73)=69500.,
   RMIND_RADAR=10340,
   RMIND_SCATT=45000,
   SSCAT_XGRID=25000.,
   XYSHIFT_THIBOX(9)=0.5,
   XYSHIFT_THIBOX(13)=0.5,
   ZRADARXSIG=0.2,
 /
 &NAMSCEN
 /
 &NAMSCM
 /
 &NAMSEKF
 /
 &NAMSENS
 /
 &NAMSFXCMP
 /
 &NAMSIMPHL
 /
 &NAMSPNG
 /
 &NAMSPP
 /
 &NAMSPSDT
 /
 &NAMSTA
 /
 &NAMSTOPH
 /
 &NAMSWE
 /
 &NAMTESTVAR
 /
 &NAMTHLIM
 /
 &NAMTOPH
 /
 &NAMTRAJ
 /
 &NAMTRAJP
 /
 &NAMTRANS
 /
 &NAMTRANS0
 /
 &NAMTS
 /
 &NAMVAR
   LCLDSINK=.FALSE.,
   LTOVSCV=.TRUE.,
   LVARBC=.TRUE.,
   L_CHECK_CONVERGENCE=.FALSE.,
   NFRANA=10000,
   NGRATS(0)=1,
   NGRATS(1)=1,
   NITER=1,
   NSIMU=1,
   NUPTRA=-1,
   RCVGE=0.001,
 /
 &NAMVARBC
   NVERBOSE=0,
 /
 &NAMVARBC_AIREP
   LBC_ACARS=.FALSE.,
   LBC_AIRCT=.FALSE.,
   LBC_AIREP=.FALSE.,
   LBC_AMDAR=.FALSE.,
   LBC_CODAR=.FALSE.,
   LBC_COLBA=.FALSE.,
 /
 &NAMVARBC_ALLSKY
 /
 &NAMVARBC_GBRAD
 /
 &NAMVARBC_MODES
   LBC_MODES=.FALSE.,
 /
 &NAMVARBC_RAD
   YCONFIG(3,3)%NCSTART=0,
 /
 &NAMVARBC_RSONDE
   LBC_RSONDE=.FALSE.,
 /
 &NAMVARBC_SFCOBS
   LBC_SFCOBS_APD=.TRUE.,
 /
 &NAMVARBC_TCWV
 /
 &NAMVARBC_TO3
 /
 &NAMVAREPS
 /
 &NAMVDF
 /
 &NAMVDOZ
 /
 &NAMVOLCANO
 /
 &NAMVRTL
 /
 &NAMVV0
 /
 &NAMVV1
 /
 &NAMVWRK
 /
 &NAMWAVELETJB
 /
 &NAMXFU
 /
 &NAM_ASSIM
 /
 &NAM_CANAPE
 /
 &NAM_DISTRIBUTED_VECTORS
 /
 &NAM_REPROD_OPER
 /
 &NAPHLC
 /
 &NEMCT0
 /
 &NEMDIM
 /
 &NEMDYN
 /
 &NEMELBC0A
   NECRIPL=0,
 /
 &NEMELBC0B
 /
 &NEMFPEZO
 /
 &NEMGEO
 /
 &NEMJK
 /
 &NEMVAR
   ENIL1=300000.,
   ENIL2=500000.,
   ENILHBAL1=600000.,
   ENILHBAL2=1000000.,
   EVAREPSILON=0.01,
   EXPVAR=1.,
   LCORCOSU_AUTO=.FALSE.,
   LCORCOSU_HBAL=.FALSE.,
   LCORCOSU_STAT=.FALSE.,
   LEVARGP=.FALSE.,
   NBZONVAR_EW=20,
 /
 &NEMWAVELET
 /
 &RADIATION
 /
