 &NACIETEO
 /
 &NACOBS
 /
 &NACTAN
 /
 &NACTEX
 /
 &NACVEG
 /
 &NADOCK
 /
 &NAEAEM7
 /
 &NAEAER
 /
 &NAECOAPHY
 /
 &NAEPHLI
 /
 &NAEPHY
 /
 &NAERAD
   LHGHG=.FALSE.,
   LSRTM=.FALSE.,
 /
 &NAERCLI
 /
 &NAETLDIAG
 /
 &NAEVOL
 /
 &NAIMPO
 /
 &NALORI
 /
 &NAMACV
 /
 &NAMAERDET
 /
 &NAMAFN
   TFP_T%IBITS=16,
   TFP_U%IBITS=16,
   TFP_V%IBITS=16,
 /
 &NAMARG
   CNMEXP=__CEXP__,
   LSLAG=.TRUE.,
   NCONF=903,
   NFPSERVER=1,
   NSUPERSEDE=1,
 /
 &NAMARPHY
 /
 &NAMCA
 /
 &NAMCAPE
 /
 &NAMCFU
 /
 &NAMCHEM
 /
 &NAMCHET
 /
 &NAMCHK
 /
 &NAMCLA
 /
 &NAMCLDP
 /
 &NAMCLI
 /
 &NAMCLOP15
 /
 &NAMCLTC
 /
 &NAMCMEM_MW
 /
 &NAMCOK
 /
 &NAMCOM
 /
 &NAMCOMPO
 /
 &NAMCOSJO
 /
 &NAMCOUPLO4
 /
 &NAMCT0
   CFPNCF=__IOPOLL_WHITNESSFILE__,
   CNPPATH='.',
   CSCRIPT_PPSERVER=__SERVERSYNC_SCRIPT__,
   NFPOS=1,
   NFRPOS=__INPUTDATALEN__,
   NPOSTS(0)=0,
 /
 &NAMCT1
   LRFILAF=.FALSE.,
 /
 &NAMCUMF
 /
 &NAMCUMFS
 /
 &NAMCVER
 /
 &NAMCVMNH
 /
 &NAMDDH
 /
 &NAMDFI
 /
 &NAMDIM
   NPROMA=-8,
 /
 &NAMDIMO
 /
 &NAMDIM_TRAJ
 /
 &NAMDPHY
 /
 &NAMDPRECIPS
 /
 &NAMDVISI
 /
 &NAMDYN
 /
 &NAMDYNA
 /
 &NAMDYNCORE
 /
 &NAMEMIS_CONF
 /
 &NAMENKF
 /
 &NAMENSCOV
 /
 &NAMFA
   CMODEL=__OUTPUTID__,
   LEXTERN=.TRUE.,
 /
 &NAMFAINIT
 /
 &NAMFPC
   RFP3H(1)=10.,
   RFP3H(2)=20.,
   RFP3H(3)=35.,
   RFP3H(4)=50.,
   RFP3H(5)=75.,
   RFP3H(6)=100.,
   RFP3H(7)=150.,
   RFP3H(8)=200.,
   RFP3H(9)=250.,
   RFP3H(10)=375.,
   RFP3H(11)=500.,
   RFP3H(12)=625.,
   RFP3H(13)=750.,
   RFP3H(14)=875.,
   RFP3H(15)=1000.,
   RFP3H(16)=1125.,
   RFP3H(17)=1250.,
   RFP3H(18)=1375.,
   RFP3H(19)=1500.,
   RFP3H(20)=1750.,
   RFP3H(21)=2000.,
   RFP3H(22)=2250.,
   RFP3H(23)=2500.,
   RFP3H(24)=2750.,
   RFP3H(25)=3000.,
 /
 &NAMFPD
 /
 &NAMFPDY2
 /
 &NAMFPDYF
 /
 &NAMFPDYH
 /
 &NAMFPDYI
 /
 &NAMFPDYP
 /
 &NAMFPDYS
 /
 &NAMFPDYT
 /
 &NAMFPDYV
 /
 &NAMFPF
 /
 &NAMFPG
 /
 &NAMFPIOS
   CFAMODEL(1)=__FP_CMODEL__,
 /
 &NAMFPMOVE
 /
 &NAMFPOBJ
 /
 &NAMFPPHY
 /
 &NAMFPSC2
 /
 &NAMFPSC2_DEP
 /
 &NAMGEM
 /
 &NAMGFL
   YIRAD_NL%LGP=.TRUE.,
   YIRAD_NL%LREQOUT=.TRUE.,
   YIRAD_NL%NREQIN=1,
   YLRAD_NL%LGP=.TRUE.,
   YLRAD_NL%LREQOUT=.TRUE.,
   YLRAD_NL%NREQIN=1,
   YTKE_NL%LGP=.TRUE.,
   YTKE_NL%LREQOUT=.TRUE.,
   YTKE_NL%NREQIN=1,
 /
 &NAMGRIB
 /
 &NAMGWD
 /
 &NAMGWDIAG
 /
 &NAMGWWMS
 /
 &NAMIAU
 /
 &NAMICE
 /
 &NAMINI
 /
 &NAMINTFLEX
 /
 &NAMIOMI
 /
 &NAMIOS
 /
 &NAMIO_SERV
 /
 &NAMJBCODES
 /
 &NAMJG
 /
 &NAMLCZ
 /
 &NAMLIMA
 /
 &NAMLSFORC
 /
 &NAMMARS
 /
 &NAMMCC
 /
 &NAMMCUF
 /
 &NAMMETHOX
 /
 &NAMMKODB
 /
 &NAMMODERR
 /
 &NAMMTS
 /
 &NAMMWAVE
 /
 &NAMNORGWD
 /
 &NAMNPROF
 /
 &NAMNUD
 /
 &NAMNUDGLH
 /
 &NAMOBS
 /
 &NAMONEDVAR
 /
 &NAMOOPS
 /
 &NAMOPH
 /
 &NAMOPTCMEM
 /
 &NAMPAR0
   MBX_SIZE=2048000000,
   MP_TYPE=2,
   NOUTPUT=1,
   NPRGPEW=1,
   NPRGPNS='NBPROC',
   NPROC='NBPROC',
   NPRTRV=1,
   NPRTRW='NBPROC',
 /
 &NAMPAR1
   LEQ_REGIONS=.FALSE.,
   LSPLIT=.TRUE.,
   NSTRIN='NBPROC',
   NSTROUT='NBPROC',
 /
 &NAMPARAR
 /
 &NAMPERTOBS
 /
 &NAMPERTPAR
 /
 &NAMPHMSE
 /
 &NAMPHY
   LEDR=.TRUE.,
 /
 &NAMPHY0
 /
 &NAMPHY1
 /
 &NAMPHY2
 /
 &NAMPHY3
 /
 &NAMPHYDS
 /
 &NAMPPC
 /
 &NAMPPVI
 /
 &NAMPRE
 /
 &NAMPSOT
 /
 &NAMRAD15
 /
 &NAMRADCMEM
 /
 &NAMRCF
 /
 &NAMRCOEF
 /
 &NAMRES
 /
 &NAMRGRI
 /
 &NAMRINC
 /
 &NAMRIP
   TSTEP=__TIMESTEP__,
 /
 &NAMRIP0
 /
 &NAMRLX
 /
 &NAMSATS
 /
 &NAMSATSIM
 /
 &NAMSCC
 /
 &NAMSCEN
 /
 &NAMSCM
 /
 &NAMSEKF
 /
 &NAMSENS
 /
 &NAMSFXCMP
 /
 &NAMSIMPHL
 /
 &NAMSPNG
 /
 &NAMSPP
 /
 &NAMSPSDT
 /
 &NAMSTA
 /
 &NAMSTOPH
 /
 &NAMSWE
 /
 &NAMTESTVAR
 /
 &NAMTHLIM
 /
 &NAMTOPH
 /
 &NAMTRAJ
 /
 &NAMTRAJP
 /
 &NAMTRANS
 /
 &NAMTRANS0
   NPROMATR=28,
 /
 &NAMTS
 /
 &NAMVAR
 /
 &NAMVARBC
 /
 &NAMVARBC_AIREP
 /
 &NAMVARBC_ALLSKY
 /
 &NAMVARBC_GBRAD
 /
 &NAMVARBC_MODES
 /
 &NAMVARBC_RAD
 /
 &NAMVARBC_RSONDE
 /
 &NAMVARBC_SFCOBS
 /
 &NAMVARBC_TCWV
 /
 &NAMVARBC_TO3
 /
 &NAMVAREPS
 /
 &NAMVDF
 /
 &NAMVDOZ
 /
 &NAMVOLCANO
 /
 &NAMVRTL
 /
 &NAMVV0
 /
 &NAMVV1
 /
 &NAMVWRK
 /
 &NAMWAVELETJB
 /
 &NAMXFU
 /
 &NAM_ASSIM
 /
 &NAM_CANAPE
 /
 &NAM_DISTRIBUTED_VECTORS
 /
 &NAM_REPROD_OPER
 /
 &NAPHLC
 /
 &NEMCT0
 /
 &NEMDIM
 /
 &NEMDYN
 /
 &NEMELBC0A
 /
 &NEMELBC0B
 /
 &NEMFPEZO
 /
 &NEMGEO
 /
 &NEMJK
 /
 &NEMVAR
 /
 &NEMWAVELET
 /
 &RADIATION
 /
