 &NAMFPC
   NFPCLI=3,
 /
 &NAMFPIOS
   CFPCLIFNAME(1)='const.t499.000',
 /
