 &NAMFPC
   NFPCLI=3,
 /
 &NAMFPIOS
   CFPCLIFNAME(1)='Const.Clim',
 /
