 &NAMPHY
   LCVPP=.FALSE.,
   LCVRA=.FALSE.,
   LGWD=.FALSE.,
   LMPHYS=.FALSE.,
   LNEBN=.FALSE.,
   LSFHYD=.FALSE.,
   LVDIF=.FALSE.,
 /
 &NAMPHY0
   ECMNP=7000.,
   GWDCD=6.,
   GWDSE=0.0035,
   RHCRIT1=0.7,
   RHCRIT2=0.7,
 /
 &NAMSIMPHL
   LSIMPH=.TRUE.,
   LTRAJPS=.TRUE.,
   LTRAJPST=.FALSE.,
 /
 &NAPHLC
   LSPHLC=.FALSE.,
 /
