 &NAMOOPSWRITE
   CDMEXP='BGFT',
   LINC=.TRUE.,
   LWRSPEC=.TRUE.,
   LWRSPECA_GP=.FALSE.,
   LWRSPECA_GP_UV=.FALSE.,
 /
