 &NAMDYNA
   LNESC=.FALSE.,
   LPC_CHEAP=.FALSE.,
   LPC_FULL=.FALSE.,
   LSETTLS=.TRUE.,
   LSETTLST=.TRUE.,
 /
