 &NAMDYN
   LADVF=.TRUE.,
   NITMP=4,
   NTLAG=3,
   NVLAG=3,
   NWLAG=3,
   RATIO_HDI_TOP=20.,
   RCMSLP0=1.,
   RDAMPDIV=4.,
   RDAMPQ=0.,
   RDAMPT=0.,
   RDAMPVOR=50.,
   REPS1=0.,
   REPS2=0.,
   REPSM1=0.,
   REPSM2=0.,
   REPSP1=0.,
   RW2TLFF=1.,
   SIPR=100000.,
   SITR=350.,
   SLEVDH1=0.15,
   SLEVDH2=0.08,
   VESL=0.,
   XIDT=0.,
 /
