 &NAMDYN
   SIPR=100000.,
   SITR=350.,
   XIDT=0.,
 /
