 &NAMDYNA
   LDRY_ECMWF=.TRUE.,
 /
 &NAMINI
   LBIAS=.TRUE.,
   LINCR=.FALSE.,
 /
