 &NAMDYN
   BETADT=1.,
   LADVF=.TRUE.,
   NITMP=4,
   NTLAG=3,
   NVLAG=3,
   NWLAG=3,
   RATIO_HDI_TOP=20.,
   RCMSLP0=1.,
   RDAMPDIV=4.,
   RDAMPQ=0.,
   RDAMPT=0.,
   RDAMPVOR=50.,
   RW2TLFF=1.,
   SLEVDH1=0.15,
   SLEVDH2=0.08,
   VESL=0.,
 /
