 &NAMVAR
   LCLDSINK=.FALSE.,
   LTOVSCV=.TRUE.,
   LVARBC=.TRUE.,
   L_CHECK_CONVERGENCE=.FALSE.,
   NFRANA=10000,
   NGRATS(0)=1,
   NGRATS(1)=1,
   NITER=1,
   NSIMU=1,
   NUPTRA=-1,
   RCVGE=0.001,
 /
 &NEMVAR
   ENIL1=300000.,
   ENIL2=500000.,
   ENILHBAL1=600000.,
   ENILHBAL2=1000000.,
   EVAREPSILON=0.01,
   EXPVAR=1.,
   LCORCOSU_AUTO=.FALSE.,
   LCORCOSU_HBAL=.FALSE.,
   LCORCOSU_STAT=.FALSE.,
   LEVARGP=.FALSE.,
   NBZONVAR_EW=20,
 /
