 &NAMVAR
   LBGOBS=.FALSE.,
   LCLDSINK=.FALSE.,
   LTOVSCV=.TRUE.,
   LVARBC=.TRUE.,
   L_CHECK_CONVERGENCE=.FALSE.,
   NFRANA=10000,
   NGRATS(0)=1,
   NGRATS(1)=1,
   NITER=50,
   NSIMU=60,
   NUPTRA=0,
   RCVGE=0.001,
 /
