 &NAMVAR
   LCLDSINK=.FALSE.,
   LVARBC=.TRUE.,
   MUPTRA=2,
   NUPTRA=-1,
 /
