 &NAMVAR
   LBGOBS=.FALSE.,
   LCLDSINK=.FALSE.,
   LJCDFI=.FALSE.,
   LMPCGL=.FALSE.,
   LPERTMRPAS=.TRUE.,
   LUSEJCDFI=.FALSE.,
   LUSEWAVRENORM=.TRUE.,
   LVARBC=.FALSE.,
   MUPTRA=1,
   NINFRA=10,
   NUPTRA=0,
 /
 &NAMVRTL
   LDRYTL=.FALSE.,
 /
