 &NAMVAR
   LBGOBS=.FALSE.,
   LCLDSINK=.FALSE.,
   LJCDFI=.FALSE.,
   LMPCGL=.FALSE.,
   LTOVSCV=.FALSE.,
   LUSEJCDFI=.FALSE.,
   LUSEWAVRENORM=.FALSE.,
   LVARBC=.FALSE.,
   MUPTRA=2,
   NINFRA=10,
   NUPTRA=0,
 /
 &NAMVRTL
   LDRYTL=.FALSE.,
 /
