 &NACIETEO
 /
 &NACOBS
 /
 &NACTAN
 /
 &NACTEX
 /
 &NACVEG
 /
 &NADOCK
 /
 &NAEAEM7
 /
 &NAEAER
 /
 &NAECOAPHY
 /
 &NAEPHLI
 /
 &NAEPHY
 /
 &NAERAD
   LHGHG=.TRUE.,
   LRRTM=.TRUE.,
   LSRTM=.TRUE.,
   LUSEPRE2017RAD=.FALSE.,
   NHINCSOL=0,
   NMCICA=1,
   NOVLP=1,
   NRADFR=-1,
   NRADIP=2,
   NRADLP=2,
   NSW=6,
   RLWINHF=0.9,
   STBKG=0.045,
   TRBKG=0.03,
 /
 &NAERCLI
 /
 &NAETLDIAG
 /
 &NAEVOL
 /
 &NAIMPO
 /
 &NALORI
 /
 &NAMACV
 /
 &NAMAERDET
 /
 &NAMAFN
 /
 &NAMARG
   CNMEXP='CEXP',
   LSLAG=.TRUE.,
   NCONF=1,
   NSUPERSEDE=1,
 /
 &NAMARPHY
   CCOUPLING='I',
   LMSE=.TRUE.,
 /
 &NAMCA
 /
 &NAMCAPE
   GCAPEPSD=0.5,
   LADAE=.TRUE.,
   LMCAPEA=.TRUE.,
 /
 &NAMCFU
   LCUMFU=.TRUE.,
   LFDUTP=.TRUE.,
   LFLASH=.TRUE.,
   LFPLC=.TRUE.,
   LFPLS=.TRUE.,
   LFR=.TRUE.,
   LFRRC=.TRUE.,
   LFSF=.TRUE.,
   LFSOIL=.TRUE.,
   LMOON=.TRUE.,
   LNEBPAR=.TRUE.,
   LRAYD=.TRUE.,
   LRAYS=.TRUE.,
   LSTRD=.TRUE.,
   LSTRT=.TRUE.,
 /
 &NAMCHEM
 /
 &NAMCHET
 /
 &NAMCHK
 /
 &NAMCLA
 /
 &NAMCLDP
 /
 &NAMCLI
 /
 &NAMCLOP15
 /
 &NAMCLTC
 /
 &NAMCMEM_MW
 /
 &NAMCOK
 /
 &NAMCOM
 /
 &NAMCOMPO
 /
 &NAMCOSJO
 /
 &NAMCOUPLO4
 /
 &NAMCT0
   CFPNCF='ECHFP',
   CNPPATH='.',
   LFBDAP=.TRUE.,
   LFDBOP=.FALSE.,
   LREGETA=.FALSE.,
   LSPRT=.TRUE.,
   LTWOTL=.TRUE.,
   NFRGDI=1,
   NGDITS(0)=-1,
   NGDITS(1)=0,
   NSPPR=1,
 /
 &NAMCT1
   LRFILAF=.FALSE.,
   N1RES=0,
 /
 &NAMCUMF
   DETRPEN=0.0001,
   RCAPQADV=0.,
   RDXMAX=1.5,
   RDXMIN=1.,
   RMFDEPS=0.1,
   RPRCON=0.0025,
 /
 &NAMCUMFS
 /
 &NAMCVER
   NVFE_TYPE=3,
 /
 &NAMCVMNH
   LSMOOTH=.FALSE.,
   OTADJS=10800.,
   XATPERT=500.,
   XAW=1.,
   XBTPERT=0.5,
   XBW=0.5,
   XCDEPTH=1.,
   XCDEPTH_D=4000.,
   XDTPERT=0.3,
   XENTR=0.01,
 /
 &NAMDDH
 /
 &NAMDFI
 /
 &NAMDIM
   NPROMA=-16,
 /
 &NAMDIMO
 /
 &NAMDIM_TRAJ
 /
 &NAMDPHY
   LDIRCLSMOD=.FALSE.,
   LDIRSICMOD=.FALSE.,
 /
 &NAMDPRECIPS
 /
 &NAMDVISI
   HVISI=10.,
 /
 &NAMDYN
 /
 &NAMDYNA
 /
 &NAMDYNCORE
 /
 &NAMEMIS_CONF
 /
 &NAMENKF
 /
 &NAMENSCOV
 /
 &NAMFA
   YFAI%NBITS=8,
   YFAL%NBITS=8,
   YFAR%NBITS=8,
   YFAS%NBITS=8,
   YFA_XSIC%CLNAME='SEA.ICE.COVER   ',
 /
 &NAMFAINIT
 /
 &NAMFPC
 /
 &NAMFPD
 /
 &NAMFPDY2
 /
 &NAMFPDYF
 /
 &NAMFPDYH
 /
 &NAMFPDYI
 /
 &NAMFPDYP
 /
 &NAMFPDYS
 /
 &NAMFPDYT
 /
 &NAMFPDYV
 /
 &NAMFPF
 /
 &NAMFPG
 /
 &NAMFPIOS
 /
 &NAMFPMOVE
 /
 &NAMFPOBJ
 /
 &NAMFPPHY
 /
 &NAMFPSC2
 /
 &NAMFPSC2_DEP
 /
 &NAMGEM
 /
 &NAMGFL
   YA_NL%LGP=.TRUE.,
   YA_NL%LREQOUT=.TRUE.,
   YA_NL%NREQIN=0,
   YIRAD_NL%LGP=.TRUE.,
   YIRAD_NL%LREQOUT=.TRUE.,
   YIRAD_NL%NREQIN=0,
   YI_NL%LADV=.TRUE.,
   YI_NL%LGP=.TRUE.,
   YI_NL%LGPINGP=.TRUE.,
   YI_NL%LPHY=.FALSE.,
   YI_NL%LQM=.TRUE.,
   YI_NL%LREQOUT=.TRUE.,
   YI_NL%LT1=.TRUE.,
   YI_NL%NREQIN=1,
   YLRAD_NL%LGP=.TRUE.,
   YLRAD_NL%LREQOUT=.TRUE.,
   YLRAD_NL%NREQIN=0,
   YL_NL%LADV=.TRUE.,
   YL_NL%LGP=.TRUE.,
   YL_NL%LGPINGP=.TRUE.,
   YL_NL%LPHY=.FALSE.,
   YL_NL%LQM=.TRUE.,
   YL_NL%LREQOUT=.TRUE.,
   YL_NL%LT1=.TRUE.,
   YL_NL%NREQIN=1,
   YQ_NL%LVWENO=.TRUE.,
   YR_NL%LADV=.TRUE.,
   YR_NL%LGP=.TRUE.,
   YR_NL%LGPINGP=.TRUE.,
   YR_NL%LPHY=.FALSE.,
   YR_NL%LQM=.TRUE.,
   YR_NL%LREQOUT=.TRUE.,
   YR_NL%LT1=.TRUE.,
   YR_NL%NREQIN=1,
   YS_NL%LADV=.TRUE.,
   YS_NL%LGP=.TRUE.,
   YS_NL%LGPINGP=.TRUE.,
   YS_NL%LPHY=.FALSE.,
   YS_NL%LQM=.TRUE.,
   YS_NL%LREQOUT=.TRUE.,
   YS_NL%LT1=.TRUE.,
   YS_NL%NREQIN=1,
   YTKE_NL%LADV=.TRUE.,
   YTKE_NL%LGP=.TRUE.,
   YTKE_NL%LGPINGP=.TRUE.,
   YTKE_NL%LQM=.TRUE.,
   YTKE_NL%LREQOUT=.TRUE.,
   YTKE_NL%LT1=.TRUE.,
   YTKE_NL%NCOUPLING=0,
   YTKE_NL%NREQIN=1,
 /
 &NAMGRIB
 /
 &NAMGWD
 /
 &NAMGWDIAG
 /
 &NAMGWWMS
 /
 &NAMIAU
 /
 &NAMICE
 /
 &NAMINI
 /
 &NAMINTFLEX
 /
 &NAMIOMI
 /
 &NAMIOS
 /
 &NAMIO_SERV
 /
 &NAMJBCODES
 /
 &NAMJG
 /
 &NAMLCZ
 /
 &NAMLIMA
 /
 &NAMLSFORC
 /
 &NAMMARS
 /
 &NAMMCC
 /
 &NAMMCUF
 /
 &NAMMETHOX
 /
 &NAMMKODB
 /
 &NAMMODERR
 /
 &NAMMTS
 /
 &NAMMWAVE
 /
 &NAMNORGWD
 /
 &NAMNPROF
 /
 &NAMNUD
 /
 &NAMNUDGLH
 /
 &NAMOBS
 /
 &NAMONEDVAR
 /
 &NAMOOPS
 /
 &NAMOPH
 /
 &NAMOPTCMEM
 /
 &NAMPAR0
   MBX_SIZE=2048000000,
   MP_TYPE=2,
   NOUTPUT=1,
   NPRGPEW=__PART_TASKS2D_X_XCLOSETO_16__,
   NPRGPNS=__PART_TASKS2D_Y_XCLOSETO_16__,
   NPROC='NBPROC',
   NPRTRV=__PART_TASKS2D_X_XCLOSETO_16__,
   NPRTRW=__PART_TASKS2D_Y_XCLOSETO_16__,
   NSPECRESMIN=1199,
 /
 &NAMPAR1
   LEQ_REGIONS=.TRUE.,
   LSLONDEM=.TRUE.,
   LSPLIT=.TRUE.,
   NCOMBFLEN=1638400,
   NSTRIN='NBPROC',
   NSTROUT='NBPROC',
 /
 &NAMPARAR
 /
 &NAMPERTOBS
 /
 &NAMPERTPAR
   DETRPEN_MAX=0.00015,
   DETRPEN_MIN=0.000075,
   ENTRORG_MAX=0.0019,
   ENTRORG_MIN=0.0016,
   RMFDEPS_MAX=0.2,
   RMFDEPS_MIN=0.09,
   RPRCON_MAX=0.004,
   RPRCON_MIN=0.0015,
   XPERTFLUX_MAX=0.5,
   XPERTFLUX_MIN=-0.5,
 /
 &NAMPHMSE
   LPGDFWR=.FALSE.,
 /
 &NAMPHY
   CGMIXLEN='AY',
   LADJCLD=.TRUE.,
   LAERODES=.TRUE.,
   LAEROLAN=.TRUE.,
   LAEROSEA=.TRUE.,
   LAEROSOO=.TRUE.,
   LCONDWT=.TRUE.,
   LCVPPKF=.TRUE.,
   LCVRA=.FALSE.,
   LCVTDK=.TRUE.,
   LDAYD=.TRUE.,
   LDIFCONS=.TRUE.,
   LDPRECIPS=.TRUE.,
   LDPRECIPS2=.TRUE.,
   LECDEEP=.FALSE.,
   LECSHAL=.TRUE.,
   LECT=.TRUE.,
   LECTFL=.TRUE.,
   LECTFL0=.TRUE.,
   LECTPRODCVP=.TRUE.,
   LEDMFI=.FALSE.,
   LEDR=.TRUE.,
   LFLUSO=.TRUE.,
   LFPCOR=.TRUE.,
   LGLACIERS=.TRUE.,
   LGPCMT=.FALSE.,
   LNCVPGY=.FALSE.,
   LNEBECT=.FALSE.,
   LNEWD=.TRUE.,
   LNOIAS=.TRUE.,
   LO3ABC=.TRUE.,
   LO3FL=.TRUE.,
   LPROCLD=.TRUE.,
   LPTOPC=.TRUE.,
   LRAY=.FALSE.,
   LRAYFM=.TRUE.,
   LRAYLU=.TRUE.,
   LRNUMX=.TRUE.,
   LSMITH_CDEV=.TRUE.,
   LSSD=.TRUE.,
   LSTRA=.FALSE.,
   LVGSN=.TRUE.,
   LZ0HSREL=.TRUE.,
   NCALLRAD=2,
   NDPRECPERIOD2=3600,
   NSOLE=1,
 /
 &NAMPHY0
   AECLS4=3.,
   ALMAVE=0.,
   ALMAVX=1000.,
   ECTMAX=35.,
   EDD=1.,
   EDK=1.,
   GCVHMIN=30000.,
   GCVNU=0.00005,
   GCVOMGE=1.,
   GCVOMGQ=0.,
   GCVOMGS=1.,
   GCVPSI=1.,
   GCVPSIE=1.,
   GDDEVA=0.2,
   GWDCD=5.4,
   GWDSE=0.005,
   GWDVALI=0.5,
   QSNEBC=-1.,
   QSSUSC=5.,
   RCVEVAP=0.25,
   REFLKUO=5000.,
   REVASX=2.0D-7,
   RFACNSM=1.2,
   RFLCHCE=0.25,
   RHCRIT2=0.95,
   RICRLM=0.5,
   RKFBTAU=7200.,
   RPRTH=1.,
   RQCRNS=0.,
   RQICRSN=1.,
   RQICRT2=0.,
   RQICVMIN=0.00001,
   RQLCR=0.0005,
   SXNBCO=1.,
   TDDGP=0.6,
   TFVI=0.08,
   TFVL=0.02,
   TFVLD=0.02,
   TFVS=1.5,
   TUDGP=0.6,
   USURIC=0.175,
   USURICL=1.,
   USURID=0.1,
   VZ0CM=0.0001,
   XBLM=8.5,
   XMAXLM=5000.,
   XMINLM=10.,
 /
 &NAMPHY1
   ALBMIN=0.65,
   ALCRIN=0.81,
   ALRCN1=0.01,
   EMMGLA=0.98,
   EMMMER=0.99,
 /
 &NAMPHY2
   FACRAF=4.,
   FACRAFCV=0.5,
   HTKERAF=20.,
   LRAFTKE=.TRUE.,
   XMULAF=0.,
 /
 &NAMPHY3
 /
 &NAMPHYDS
 /
 &NAMPPC
 /
 &NAMPPVI
 /
 &NAMPRE
 /
 &NAMPSOT
 /
 &NAMRAD15
 /
 &NAMRADCMEM
 /
 &NAMRCF
 /
 &NAMRCOEF
 /
 &NAMRES
 /
 &NAMRGRI
 /
 &NAMRINC
 /
 &NAMRIP
   CSTOP='FCSTOP',
   TSTEP='TIMESTEP',
 /
 &NAMRIP0
 /
 &NAMRLX
 /
 &NAMSATS
 /
 &NAMSATSIM
 /
 &NAMSCC
 /
 &NAMSCEN
 /
 &NAMSCM
 /
 &NAMSEKF
 /
 &NAMSENS
 /
 &NAMSFXCMP
   CFLDNAME(1)='????????????????',
   NBBITS(1)=24,
   NVGRIBSFX=123,
 /
 &NAMSIMPHL
 /
 &NAMSPNG
 /
 &NAMSPP
 /
 &NAMSPSDT
 /
 &NAMSTA
 /
 &NAMSTOPH
 /
 &NAMSWE
 /
 &NAMTESTVAR
 /
 &NAMTHLIM
 /
 &NAMTOPH
   ETCVIM=1000.,
   ETNEBU=1000.,
   ETPLUI=1000.,
   XDRMTK=2.0D-8,
   XDRMTP=800.,
   XDRMTX=4.0D-7,
   XDRMUK=1.0D-7,
   XDRMUP=800.,
   XDRMUX=0.000002,
 /
 &NAMTRAJ
 /
 &NAMTRAJP
 /
 &NAMTRANS
 /
 &NAMTRANS0
 /
 &NAMTS
 /
 &NAMVAR
 /
 &NAMVARBC
 /
 &NAMVARBC_AIREP
 /
 &NAMVARBC_ALLSKY
 /
 &NAMVARBC_GBRAD
 /
 &NAMVARBC_MODES
 /
 &NAMVARBC_RAD
 /
 &NAMVARBC_RSONDE
 /
 &NAMVARBC_SFCOBS
 /
 &NAMVARBC_TCWV
 /
 &NAMVARBC_TO3
 /
 &NAMVAREPS
 /
 &NAMVDF
 /
 &NAMVDOZ
 /
 &NAMVOLCANO
 /
 &NAMVRTL
 /
 &NAMVV0
 /
 &NAMVV1
 /
 &NAMVWRK
 /
 &NAMWAVELETJB
 /
 &NAMXFU
   LXCLP=.TRUE.,
   LXCLS=.TRUE.,
   LXCTOP=.TRUE.,
   LXFU=.TRUE.,
   LXHHCLS=.TRUE.,
   LXICV=.TRUE.,
   LXNEBPA=.TRUE.,
   LXNEBTT=.TRUE.,
   LXNUVCLS=.TRUE.,
   LXQCLS=.TRUE.,
   LXSNOWDEPTH=.TRUE.,
   LXSOIL=.TRUE.,
   LXTGST=.TRUE.,
   LXTTCLS=.TRUE.,
   LXVISI=.TRUE.,
   LXVISI2=.TRUE.,
   LXXGST=.TRUE.,
   LXXGST2=.TRUE.,
   N1RAZ=1,
   NFRRAZ=1,
   NRAZTS(0)=-35,
   NRAZTS(1)=0,
   NRAZTS(2)=-3,
   NRAZTS(3)=-6,
   NRAZTS(4)=-9,
   NRAZTS(5)=-12,
   NRAZTS(6)=-15,
   NRAZTS(7)=-18,
   NRAZTS(8)=-21,
   NRAZTS(9)=-24,
   NRAZTS(10)=-27,
   NRAZTS(11)=-30,
   NRAZTS(12)=-33,
   NRAZTS(13)=-36,
   NRAZTS(14)=-39,
   NRAZTS(15)=-42,
   NRAZTS(16)=-45,
   NRAZTS(17)=-48,
   NRAZTS(18)=-51,
   NRAZTS(19)=-54,
   NRAZTS(20)=-57,
   NRAZTS(21)=-60,
   NRAZTS(22)=-63,
   NRAZTS(23)=-66,
   NRAZTS(24)=-69,
   NRAZTS(25)=-72,
   NRAZTS(26)=-75,
   NRAZTS(27)=-78,
   NRAZTS(28)=-81,
   NRAZTS(29)=-84,
   NRAZTS(30)=-87,
   NRAZTS(31)=-90,
   NRAZTS(32)=-93,
   NRAZTS(33)=-96,
   NRAZTS(34)=-99,
   NRAZTS(35)=-102,
   NVISIPERIOD2=10800,
   NXGSTPERIOD2=10800,
 /
 &NAM_ASSIM
 /
 &NAM_CANAPE
 /
 &NAM_DISTRIBUTED_VECTORS
 /
 &NAM_REPROD_OPER
 /
 &NAPHLC
 /
 &NEMCT0
 /
 &NEMDIM
 /
 &NEMDYN
 /
 &NEMELBC0A
 /
 &NEMELBC0B
 /
 &NEMFPEZO
 /
 &NEMGEO
 /
 &NEMJK
 /
 &NEMVAR
 /
 &NEMWAVELET
 /
 &RADIATION
   CLOUD_FRACTION_THRESHOLD=0.000001,
   CLOUD_INHOM_DECORR_SCALING=0.5,
   CLOUD_MIXING_RATIO_THRESHOLD=1.00D-9,
   DIRECTORY_NAME='.',
   DO_CLEAR=.TRUE.,
   DO_FU_LW_ICE_OPTICS_BUG=.FALSE.,
   DO_LW_AEROSOL_SCATTERING=.FALSE.,
   DO_LW_CLOUD_SCATTERING=.FALSE.,
   DO_LW_DERIVATIVES=.TRUE.,
   DO_SAVE_GPOINT_FLUX=.FALSE.,
   DO_SAVE_RADIATIVE_PROPERTIES=.FALSE.,
   DO_SAVE_SPECTRAL_FLUX=.FALSE.,
   DO_SURFACE_SW_SPECTRAL_FLUX=.TRUE.,
   DO_SW_DELTA_SCALING_WITH_GASES=.TRUE.,
   GAS_MODEL_NAME='RRTMG-IFS',
   ICE_MODEL_NAME='Fu-IFS',
   IVERBOSE=1,
   IVERBOSESETUP=3,
   LIQUID_MODEL_NAME='Slingo',
   LW_SOLVER_NAME='McICA',
   OVERLAP_SCHEME_NAME='Exp-Exp',
   SW_SOLVER_NAME='McICA',
   USE_AEROSOLS=.TRUE.,
   USE_BETA_OVERLAP=.FALSE.,
 /
