 &BUFR
   GPSSOLMETHOD='NULL',
   LPACOME=.TRUE.,
   NBRAINTOKEEP=2,
   RAINSELECTORDER(1:3)=21600,86400,43200,
 /
 &GRIB
 /
 &HDF5
 /
 &NADIRS
   INBTYPEBUFR=200,
 /
 &NAMDYNCORE
 /
 &NAMSATFREQ
 /
 &NAMSCEN
 /
 &NETCDF
 /
