 &NAMVARBC
   LMRG_REPLACE_SFCOBS=.TRUE.,
   NVERBOSE=0,
 /
