 &NAMVARBC
   NVERBOSE=0,
 /
 &NAMVARBC_AIREP
   LBC_ACARS=.TRUE.,
   LBC_AIRCT=.TRUE.,
   LBC_AIREP=.TRUE.,
   LBC_AMDAR=.TRUE.,
   LBC_CODAR=.TRUE.,
   LBC_COLBA=.TRUE.,
 /
 &NAMVARBC_MODES
   LBC_MODES=.FALSE.,
 /
 &NAMVARBC_RAD
   LCLD_AIRS=.TRUE.,
   YCONFIG(3,3)%NCSTART=0,
 /
 &NAMVARBC_RSONDE
   LBC_RSONDE=.FALSE.,
 /
 &NAMVARBC_SFCOBS
   LBC_SFCOBS_APD=.TRUE.,
 /
