 &NAMVARBC
   LMRG_REPLACE_SFCOBS=.TRUE.,
 /
