 &NAMVARBC
   NVERBOSE=0,
 /
 &NAMVARBC_AIREP
   LBC_ACARS=.TRUE.,
   LBC_AIRCT=.TRUE.,
   LBC_AIREP=.TRUE.,
   LBC_AMDAR=.TRUE.,
   LBC_CODAR=.TRUE.,
   LBC_COLBA=.TRUE.,
 /
 &NAMVARBC_RAD
   LBC_ATMS=.TRUE.,
   YCONFIG(3,3)%NCSTART=0,
 /
 &NAMVARBC_SFCOBS
   LBC_SFCOBS_APD=.FALSE.,
 /
