 &NACIETEO
 /
 &NACOBS
 /
 &NACTAN
 /
 &NACTEX
 /
 &NACVEG
 /
 &NADOCK
 /
 &NAEAEM7
 /
 &NAEAER
 /
 &NAECOAPHY
 /
 &NAEPHLI
 /
 &NAEPHY
 /
 &NAERAD
   LRRTM=.TRUE.,
   LSRTM=.FALSE.,
   NAER=1,
   NICEOPT=3,
   NLIQOPT=3,
   NOVLP=6,
   NOZOCL=2,
   NRADFR=18,
   NRADIP=3,
   NRADLP=2,
   NSW=6,
   RLWINHF=1,
   RRE2DE=0.64952,
   RSWINHF=1,
 /
 &NAERCLI
 /
 &NAETLDIAG
 /
 &NAEVOL
 /
 &NAIMPO
 /
 &NALORI
 /
 &NAMACV
 /
 &NAMAERDET
 /
 &NAMAFN
   GFP_SFIS%IBITS=16,
   GFP_ST%IANO=0,
   GFP_ST%IBITS=12,
   GFP_X10U%IANO=0,
   GFP_X10U%IBITS=12,
   GFP_X10V%IANO=0,
   GFP_X10V%IBITS=12,
   GFP_X2RH%IANO=0,
   GFP_X2RH%IBITS=12,
   GFP_X2T%IANO=1,
   GFP_X2TPW%IANO=0,
   GFP_XCCC%IBITS=8,
   GFP_XHCC%IBITS=8,
   GFP_XLCC%IBITS=8,
   GFP_XMCC%IBITS=8,
   GFP_XN2T%IBITS=12,
   GFP_XTCC%IBITS=8,
   GFP_XUGST%IANO=0,
   GFP_XUGST%IBITS=12,
   GFP_XUGST2%IANO=0,
   GFP_XUGST2%IBITS=12,
   GFP_XVGST%IANO=0,
   GFP_XVGST%IBITS=12,
   GFP_XVGST2%IANO=0,
   GFP_XVGST2%IBITS=12,
   GFP_XX2T%IBITS=12,
   GFP_XXDIAGH%IBITS=12,
   TFP_ABS%ZFK=32.,
   TFP_ASMC%CLNAME='P50000SURFMOCON',
   TFP_CLF%IBITS=6,
   TFP_EDR%IBITS=16,
   TFP_GR%IBITS=12,
   TFP_HL%IBITS=12,
   TFP_HTB%IBITS=16,
   TFP_HTB%LLGP=.TRUE.,
   TFP_HU%IBITS=12,
   TFP_MSAT9C2%IBITS=12,
   TFP_MSAT9C6%IBITS=12,
   TFP_MSL%IBITS=12,
   TFP_MSLNH%IBITS=12,
   TFP_PV%ZFK=64.,
   TFP_RCLS%IBITS=12,
   TFP_RR%IBITS=12,
   TFP_SN%IBITS=12,
   TFP_T%IBITS=12,
   TFP_TCLS%IBITS=12,
   TFP_TH%IBITS=12,
   TFP_THPW%IBITS=12,
   TFP_THV%IBITS=12,
   TFP_TN%IBITS=12,
   TFP_TWV%IBITS=12,
   TFP_TX%IBITS=12,
   TFP_U%IBITS=12,
   TFP_V%IBITS=12,
   TFP_VOR%ZFK=32.,
   TFP_VV%ZFK=32.,
 /
 &NAMARG
   CNMEXP='CEXP',
   LSLAG=.TRUE.,
   NCONF=1,
   NSUPERSEDE=1,
 /
 &NAMARPHY
   LKFBCONV=.FALSE.,
   LKFBD=.FALSE.,
   LKFBS=.FALSE.,
   LMFSHAL=.TRUE.,
   LMICRO=.TRUE.,
   LMPA=.TRUE.,
   LMSE=.TRUE.,
   LTURB=.TRUE.,
 /
 &NAMCA
 /
 &NAMCAPE
   GCAPEPSD=0.5,
   LADAE=.TRUE.,
 /
 &NAMCFU
   CALFLASH1=0.018,
   LCUMFU=.TRUE.,
   LFLASH=.TRUE.,
   LFPLS=.TRUE.,
   LFPLSG=.TRUE.,
   LFR=.TRUE.,
   LFRRC=.TRUE.,
   LFSF=.TRUE.,
   LNEBPAR=.TRUE.,
   LNEBTT=.TRUE.,
   LRAYD=.TRUE.,
   LRAYS=.TRUE.,
   NMTFLASH=1,
 /
 &NAMCHEM
 /
 &NAMCHET
 /
 &NAMCHK
 /
 &NAMCLA
 /
 &NAMCLDP
 /
 &NAMCLI
 /
 &NAMCLOP15
 /
 &NAMCLTC
 /
 &NAMCMEM_MW
 /
 &NAMCOK
 /
 &NAMCOM
 /
 &NAMCOMPO
 /
 &NAMCOSJO
 /
 &NAMCOUPLO4
 /
 &NAMCT0
   CFPNCF='ECHFP',
   CNPPATH='.',
   CSCRIPT_LAMRTC='./atcp.alad',
   LAROME=.TRUE.,
   LNHEE=.TRUE.,
   LSCREEN_OPENMP=.FALSE.,
   LSPRT=.TRUE.,
   LTWOTL=.TRUE.,
   NFPOS=1,
   NFRHIS=1,
   NFRPOS=1,
   NFRSDI=10000,
   NHISTS(0)=7,
   NHISTS(1)=0,
   NHISTS(2)=72,
   NHISTS(3)=144,
   NHISTS(4)=216,
   NHISTS(5)=288,
   NHISTS(6)=360,
   NHISTS(7)=432,
   NPOSTS(0)=25,
   NPOSTS(1)=0,
   NPOSTS(2)=18,
   NPOSTS(3)=36,
   NPOSTS(4)=54,
   NPOSTS(5)=72,
   NPOSTS(6)=90,
   NPOSTS(7)=108,
   NPOSTS(8)=126,
   NPOSTS(9)=144,
   NPOSTS(10)=162,
   NPOSTS(11)=180,
   NPOSTS(12)=198,
   NPOSTS(13)=216,
   NPOSTS(14)=234,
   NPOSTS(15)=252,
   NPOSTS(16)=270,
   NPOSTS(17)=288,
   NPOSTS(18)=306,
   NPOSTS(19)=324,
   NPOSTS(20)=342,
   NPOSTS(21)=360,
   NPOSTS(22)=378,
   NPOSTS(23)=396,
   NPOSTS(24)=414,
   NPOSTS(25)=432,
   NSDITS(0)=7,
   NSDITS(1)=0,
   NSDITS(2)=72,
   NSDITS(3)=144,
   NSDITS(4)=216,
   NSDITS(5)=288,
   NSDITS(6)=360,
   NSDITS(7)=432,
 /
 &NAMCT1
   LRFILAF=.FALSE.,
   N1HIS=1,
   N1POS=1,
   N1RES=0,
   N1SDI=1,
   N1SFXHIS=0,
 /
 &NAMCUMF
 /
 &NAMCUMFS
 /
 &NAMCVER
 /
 &NAMCVMNH
 /
 &NAMDDH
 /
 &NAMDFI
 /
 &NAMDIM
   NPROMA=-16,
 /
 &NAMDIMO
 /
 &NAMDIM_TRAJ
 /
 &NAMDPHY
 /
 &NAMDPRECIPS
 /
 &NAMDVISI
   HVISI=5.,
 /
 &NAMDYN
   LADVF=.TRUE.,
   LQMPD=.FALSE.,
   LQMT=.FALSE.,
   LQMVD=.FALSE.,
   LRHDI_LASTITERPC=.TRUE.,
   NITMP=4,
   NSITER=1,
   NSPDLAG=3,
   NSVDLAG=3,
   NTLAG=3,
   NVLAG=3,
   NWLAG=3,
   RDAMPDIV=20.,
   RDAMPPD=20.,
   RDAMPQ=0.,
   RDAMPT=0.,
   RDAMPVD=20.,
   RDAMPVOR=20.,
   REPS1=0.,
   REPS2=0.,
   REPSM1=0.,
   REPSM2=0.,
   REPSP1=0.,
   SDRED=1.,
   SIPR=90000.,
   SITR=350.,
   SITRA=100.,
   SLHDA0=0.25,
   SLHDD00=0.000065,
   VESL=0.05,
   XIDT=0.,
   ZSLHDP1=1.7,
   ZSLHDP3=0.6,
 /
 &NAMDYNA
   LCOMADH=.TRUE.,
   LCOMADV=.FALSE.,
   LCOMAD_GFL=.TRUE.,
   LCOMAD_SP=.TRUE.,
   LCOMAD_SPD=.TRUE.,
   LCOMAD_SVD=.TRUE.,
   LCOMAD_T=.TRUE.,
   LCOMAD_W=.TRUE.,
   LGWADV=.TRUE.,
   LNESC=.TRUE.,
   LPC_CHEAP=.TRUE.,
   LPC_FULL=.TRUE.,
   LRDBBC=.FALSE.,
   LSETTLS=.FALSE.,
   LSETTLST=.TRUE.,
   LSLHD_GFL=.FALSE.,
   LSLHD_OLD=.FALSE.,
   LSLHD_SPD=.FALSE.,
   LSLHD_SVD=.FALSE.,
   LSLHD_T=.FALSE.,
   LSLHD_W=.FALSE.,
   ND4SYS=2,
   SLHDEPSH=0.08,
   SLHDKMAX=6,
 /
 &NAMDYNCORE
 /
 &NAMEMIS_CONF
 /
 &NAMENKF
 /
 &NAMENSCOV
 /
 &NAMFA
   CMODEL='OUTPUTID',
   LEXTERN=.TRUE.,
   LSUPPDATE=.FALSE.,
   YFA_MXCLWC%CLNAME='CLD_WX_60M',
   YFA_MXCLWC2%CLNAME='CLD_WX_15M',
   YFA_VISICLD%CLNAME='CLSVISIN_60',
   YFA_VISICLD2%CLNAME='CLSVISIN_15',
   YFA_VISIHYD%CLNAME='CLSVISIHYDN60',
   YFA_VISIHYD2%CLNAME='CLSVISIHYDN15',
   YFA_XPTYPE%CLNAME='CLSPTYPE_15M',
   YFA_XPTYPESEV%CLNAME='CLSPTYPESEV_15M',
   YFA_XUGST%CLNAME='CLSU.RAF60M.XFU',
   YFA_XUGST2%CLNAME='CLSU.RAF15M.XFU',
   YFA_XVGST%CLNAME='CLSV.RAF60M.XFU',
   YFA_XVGST2%CLNAME='CLSV.RAF15M.XFU',
 /
 &NAMFAINIT
 /
 &NAMFPC
 /
 &NAMFPD
   NFPRLX=1,
   NFPRLY=3,
   NFPRUX=2,
   NFPRUY=2,
   NLAT(1)=717,
   NLAT(2)=1791,
   NLON(1)=1121,
   NLON(2)=2801,
   RDELX(1)=0.025,
   RDELX(2)=0.01,
   RDELY(1)=0.025,
   RDELY(2)=0.01,
   RLATC(1)=46.45,
   RLATC(2)=46.45,
   RLONC(1)=2.,
   RLONC(2)=2.,
 /
 &NAMFPDY2
 /
 &NAMFPDYF
 /
 &NAMFPDYH
 /
 &NAMFPDYI
 /
 &NAMFPDYP
 /
 &NAMFPDYS
 /
 &NAMFPDYT
 /
 &NAMFPDYV
 /
 &NAMFPF
   NFMAX(1)=60,
   NFMAX(2)=80,
 /
 &NAMFPG
 /
 &NAMFPIOS
 /
 &NAMFPMOVE
 /
 &NAMFPOBJ
 /
 &NAMFPPHY
 /
 &NAMFPSC2
   NFPROMA=-48,
 /
 &NAMFPSC2_DEP
   NFPROMA_DEP=-48,
 /
 &NAMGEM
 /
 &NAMGFL
   NGFL_EZDIAG=4,
   YEZDIAG_NL(1)%CNAME='EZDIAG01',
   YEZDIAG_NL(1)%LREQOUT=.FALSE.,
   YEZDIAG_NL(2)%CNAME='EZDIAG02',
   YEZDIAG_NL(2)%LREQOUT=.FALSE.,
   YEZDIAG_NL(3)%CNAME='EZDIAG03',
   YEZDIAG_NL(3)%LREQOUT=.FALSE.,
   YEZDIAG_NL(4)%CNAME='INPRRTOT3D',
   YEZDIAG_NL(4)%LREQOUT=.TRUE.,
   YG_NL%LCOMAD=.TRUE.,
   YG_NL%LINTLIN=.TRUE.,
   YG_NL%LQM=.TRUE.,
   YG_NL%LSLHD=.FALSE.,
   YG_NL%NCOUPLING=-1,
   YG_NL%NREQIN=1,
   YG_NL%REFVALC=0.,
   YIRAD_NL%LGP=.TRUE.,
   YI_NL%LCOMAD=.TRUE.,
   YI_NL%LINTLIN=.TRUE.,
   YI_NL%LQM=.TRUE.,
   YI_NL%LSLHD=.FALSE.,
   YI_NL%NCOUPLING=-1,
   YI_NL%NREQIN=1,
   YI_NL%REFVALC=0.,
   YLRAD_NL%LGP=.TRUE.,
   YL_NL%LCOMAD=.TRUE.,
   YL_NL%LINTLIN=.TRUE.,
   YL_NL%LQM=.TRUE.,
   YL_NL%LSLHD=.FALSE.,
   YL_NL%NCOUPLING=-1,
   YL_NL%NREQIN=1,
   YL_NL%REFVALC=0.,
   YQ_NL%LCOMAD=.TRUE.,
   YQ_NL%LQM=.TRUE.,
   YQ_NL%LSLHD=.FALSE.,
   YQ_NL%NREQIN=1,
   YR_NL%LCOMAD=.TRUE.,
   YR_NL%LINTLIN=.TRUE.,
   YR_NL%LQM=.TRUE.,
   YR_NL%LSLHD=.FALSE.,
   YR_NL%NCOUPLING=-1,
   YR_NL%NREQIN=1,
   YR_NL%REFVALC=0.,
   YS_NL%LCOMAD=.TRUE.,
   YS_NL%LINTLIN=.TRUE.,
   YS_NL%LQM=.TRUE.,
   YS_NL%LSLHD=.FALSE.,
   YS_NL%NCOUPLING=-1,
   YS_NL%NREQIN=1,
   YS_NL%REFVALC=0.,
   YTKE_NL%NCOUPLING=0,
   YTKE_NL%NREQIN=1,
 /
 &NAMGRIB
 /
 &NAMGWD
 /
 &NAMGWDIAG
 /
 &NAMGWWMS
 /
 &NAMIAU
   ALPHAIAU=0.5,
   LIAU=.FALSE.,
   TSTARTIAU=1800,
   TSTOPIAU=5340,
 /
 &NAMICE
 /
 &NAMINI
 /
 &NAMINTFLEX
 /
 &NAMIOMI
 /
 &NAMIOS
 /
 &NAMIO_SERV
   IDISTIO=-1,
   NIO_SERV_BUF_MAXSIZE=20,
   NIO_SERV_METHOD=2,
   NMSG_LEVEL_CLIENT=0,
   NMSG_LEVEL_SERVER=0,
   NPROCESS_LEVEL=5,
   NPROC_IO='NBPROC_IO',
 /
 &NAMJBCODES
 /
 &NAMJG
 /
 &NAMLCZ
 /
 &NAMLIMA
 /
 &NAMLSFORC
 /
 &NAMMARS
 /
 &NAMMCC
 /
 &NAMMCUF
 /
 &NAMMETHOX
 /
 &NAMMKODB
 /
 &NAMMODERR
 /
 &NAMMTS
 /
 &NAMMWAVE
 /
 &NAMNORGWD
 /
 &NAMNPROF
 /
 &NAMNUD
 /
 &NAMNUDGLH
 /
 &NAMOBS
 /
 &NAMONEDVAR
 /
 &NAMOOPS
 /
 &NAMOPH
   CFNHWF='ECHIS',
   NTIMEFMT=1,
 /
 &NAMOPTCMEM
 /
 &NAMPAR0
   LMPOFF=.FALSE.,
   MBX_SIZE=2048000000,
   MP_TYPE=2,
   NOUTPUT=1,
   NPRGPEW=__PART_TASKS2D_X_XCLOSETO_16__,
   NPRGPNS=__PART_TASKS2D_Y_XCLOSETO_16__,
   NPROC='NBPROC',
   NPRTRV=__PART_TASKS2D_X_XCLOSETO_16__,
   NPRTRW=__PART_TASKS2D_Y_XCLOSETO_16__,
 /
 &NAMPAR1
   LEQ_REGIONS=.FALSE.,
   LSLONDEM=.TRUE.,
   LSPLIT=.TRUE.,
   LSYNC_SLCOM=.FALSE.,
   LSYNC_TRANS=.FALSE.,
   L_GATHERV_WRGP=.FALSE.,
   NCOMBFLEN=1800000,
   NDISTIO(12)=1,
   NSTRIN=100,
   NSTROUT='NBPROC',
 /
 &NAMPARAR
   CFRAC_ICE_ADJUST='S',
   CFRAC_ICE_SHALLOW_MF='S',
   CMICRO='ICE3',
   CSEDIM='STAT',
   CSNOWRIMING='M90',
   LCONVHG=.TRUE.,
   LCRFLIMIT=.TRUE.,
   LCRIAUTI=.TRUE.,
   LEVLIMIT=.TRUE.,
   LFEEDBACKT=.TRUE.,
   LFPREC3D=.TRUE.,
   LNULLWETG=.TRUE.,
   LNULLWETH=.TRUE.,
   LOLSMC=.TRUE.,
   LOSEDIC=.TRUE.,
   LOSIGMAS=.TRUE.,
   LOSUBG_COND=.TRUE.,
   LSEDIM_AFTER=.FALSE.,
   LWETGPOST=.TRUE.,
   LWETHPOST=.TRUE.,
   NMAXITER_MICRO=1,
   NPRINTFR=10000,
   NPTP=1,
   RCRIAUTC=0.001,
   RCRIAUTI=0.0002,
   RT0CRIAUTI=-5.,
   VSIGQSAT=0.02,
   XFRACM90=0.1,
   XMRSTEP=0.00005,
   XSPLIT_MAXCFL=0.8,
   XTSTEP_TS=0.,
 /
 &NAMPERTOBS
 /
 &NAMPERTPAR
 /
 &NAMPHMSE
   LPGDFWR=.FALSE.,
 /
 &NAMPHY
   LAERODES=.TRUE.,
   LAEROLAN=.TRUE.,
   LAEROSEA=.TRUE.,
   LAEROSOO=.TRUE.,
   LDPRECIPS=.TRUE.,
   LEDR=.TRUE.,
   LMPHYS=.TRUE.,
   LO3ABC=.TRUE.,
   LRAYFM=.TRUE.,
   NDPRECPERIOD=900,
 /
 &NAMPHY0
   ALMAV=300.,
   BEDIFV=0.05,
   ECMNP=3000.,
   GCCSV=0.,
   GCVADS=0.8,
   GCVALFA=0.000045,
   GCVBETA=0.2,
   GCVMLT=0.00016,
   GCVNU=0.000025,
   GCVPSI=1.,
   GCVPSIE=1.,
   GDDEVA=0.25,
   GDDSDE=0.5,
   GWDCD=6.,
   HUCOE=0.5,
   HUTIL=1.8,
   QSSC=400.,
   QSSUSC=0.75,
   QSSUSS=0.4,
   QSSUSV=250.,
   QSUSXC=0.0002,
   QSUSXS=0.0003,
   QXRAL=130.,
   QXRDEL=0.49,
   QXRHX=0.99,
   QXRR=0.25,
   RCVEVAP=0.25,
   REFLKUO=5000.,
   REVGSL=15.,
   SCO=-20.,
   TDDGP=0.8,
   TENTR=0.0000025,
   TENTRX=0.00008,
   TUDGP=0.8,
   UHDIFV=0.0008,
   USURIC=0.175,
   USURICE=0.5,
   USURICL=1.,
   USURID=0.1,
   USURIDE=0.25,
   VZ0CM=0.00015,
   XMAXLM=5000.,
   XMINLM=10.,
 /
 &NAMPHY1
   ALBMIN=0.65,
   ALCRIN=0.75,
   GCGEL=0.00003,
   GCGELS=0.00005,
   GNEIMX=1.8,
   GNEIMXS=1.8,
   RCTVEG(3)=0.000012,
   RCTVEG(4)=0.00001,
 /
 &NAMPHY2
   FACRAF=3.8,
   HTKERAF=20.,
   LMULAF=.TRUE.,
   LRAFTKE=.TRUE.,
   LRAFTUR=.TRUE.,
   XDAMP=1.,
   XMULAF=-1.85,
 /
 &NAMPHY3
 /
 &NAMPHYDS
 /
 &NAMPPC
 /
 &NAMPPVI
 /
 &NAMPRE
 /
 &NAMPSOT
 /
 &NAMRAD15
 /
 &NAMRADCMEM
 /
 &NAMRCF
 /
 &NAMRCOEF
 /
 &NAMRES
 /
 &NAMRGRI
 /
 &NAMRINC
 /
 &NAMRIP
   CSTOP='FCSTOP',
   TSTEP='TIMESTEP',
 /
 &NAMRIP0
 /
 &NAMRLX
 /
 &NAMSATS
   LPARTIAL_COEF_FILES=.TRUE.,
 /
 &NAMSATSIM
 /
 &NAMSCC
 /
 &NAMSCEN
 /
 &NAMSCM
 /
 &NAMSEKF
 /
 &NAMSENS
 /
 &NAMSFXCMP
   CFLDNAME(1)='????????????????',
   NBBITS(1)=24,
   NVGRIBSFX=123,
 /
 &NAMSIMPHL
 /
 &NAMSPNG
 /
 &NAMSPP
 /
 &NAMSPSDT
 /
 &NAMSTA
 /
 &NAMSTOPH
 /
 &NAMSWE
 /
 &NAMTESTVAR
 /
 &NAMTHLIM
 /
 &NAMTOPH
   ETCVIM=5000.,
   ETNEBU=5000.,
   ETPLUI=5000.,
   XDRMTK=6.0D-7,
   XDRMTP=800.,
   XDRMUK=3.0D-7,
   XDRMUP=800.,
 /
 &NAMTRAJ
 /
 &NAMTRAJP
 /
 &NAMTRANS
 /
 &NAMTRANS0
 /
 &NAMTS
 /
 &NAMVAR
 /
 &NAMVARBC
 /
 &NAMVARBC_AIREP
 /
 &NAMVARBC_ALLSKY
 /
 &NAMVARBC_GBRAD
 /
 &NAMVARBC_MODES
 /
 &NAMVARBC_RAD
 /
 &NAMVARBC_RSONDE
 /
 &NAMVARBC_SFCOBS
 /
 &NAMVARBC_TCWV
 /
 &NAMVARBC_TO3
 /
 &NAMVAREPS
 /
 &NAMVDF
 /
 &NAMVDOZ
 /
 &NAMVOLCANO
 /
 &NAMVRTL
 /
 &NAMVV0
 /
 &NAMVV1
 /
 &NAMVWRK
 /
 &NAMWAVELETJB
 /
 &NAMXFU
   LXCLP=.TRUE.,
   LXCLS=.TRUE.,
   LXFU=.TRUE.,
   LXNEBPA=.TRUE.,
   LXNEBTT=.TRUE.,
   LXNUVCLS=.TRUE.,
   LXPLS=.TRUE.,
   LXPLSG=.TRUE.,
   LXQCLS=.TRUE.,
   LXR=.TRUE.,
   LXSNOWDEPTH=.TRUE.,
   LXSOIL=.FALSE.,
   LXTHW=.TRUE.,
   LXTRT=.TRUE.,
   LXTTCLS=.TRUE.,
   LXVISI=.TRUE.,
   LXVISI2=.TRUE.,
   LXXDIAGH=.TRUE.,
   LXXGST=.TRUE.,
   LXXGST2=.TRUE.,
 /
 &NAM_ASSIM
 /
 &NAM_CANAPE
 /
 &NAM_DISTRIBUTED_VECTORS
 /
 &NAM_REPROD_OPER
 /
 &NAPHLC
 /
 &NEMCT0
 /
 &NEMDIM
 /
 &NEMDYN
 /
 &NEMELBC0A
   LESPCPL=.TRUE.,
   NBICNHX=2,
   NBICPD=2,
   NBICVD=2,
 /
 &NEMELBC0B
   NEFRSPCPL=1,
   NEK0=20,
   NEK1=30,
   NEN1=4,
   NEN2=8,
   SPNUDDIV=0.01,
   SPNUDQ=0.,
   SPNUDT=0.01,
   SPNUDVOR=0.01,
   TEFRCL=3600.,
 /
 &NEMFPEZO
 /
 &NEMGEO
 /
 &NEMJK
 /
 &NEMVAR
 /
 &NEMWAVELET
 /
 &RADIATION
 /
