 &NACIETEO
 /
 &NACOBS
 /
 &NACTAN
 /
 &NACTEX
 /
 &NACVEG
 /
 &NADOCK
 /
 &NAEAEM7
 /
 &NAEAER
 /
 &NAECOAPHY
 /
 &NAEPHLI
 /
 &NAEPHY
   LEMWAVE=.TRUE.,
 /
 &NAERAD
   LHGHG=.TRUE.,
   LRRTM=.TRUE.,
   LSRTM=.TRUE.,
   LUSEPRE2017RAD=.FALSE.,
   NMCICA=1,
   NOVLP=1,
   NRADFR=-1,
   NRADIP=2,
   NRADLP=2,
   NSW=6,
   RLWINHF=0.9,
 /
 &NAERCLI
 /
 &NAETLDIAG
 /
 &NAEVOL
 /
 &NAIMPO
 /
 &NALORI
 /
 &NAMACV
 /
 &NAMAERDET
 /
 &NAMAFN
 /
 &NAMARG
   CNMEXP='CEXP',
   LSLAG=.TRUE.,
   NCONF=2,
   NSUPERSEDE=1,
 /
 &NAMARPHY
   CCOUPLING='I',
   LMSE=.TRUE.,
 /
 &NAMCA
 /
 &NAMCAPE
 /
 &NAMCFU
 /
 &NAMCHEM
 /
 &NAMCHET
 /
 &NAMCHK
 /
 &NAMCLA
 /
 &NAMCLDP
 /
 &NAMCLI
 /
 &NAMCLOP15
 /
 &NAMCLTC
 /
 &NAMCMEM_MW
 /
 &NAMCOK
 /
 &NAMCOM
 /
 &NAMCOMPO
 /
 &NAMCOSJO
   LTC=.FALSE.,
   RBGQC(27,1,1)=2.25,
   RBGQC(27,1,2)=4.,
   RBGQC(27,1,3)=6.25,
   SIGMAO_COEF(1:6)=0.75,0.75,0.75,0.75,0.75,0.75,
   SIGMAO_COEF(9)=1.,
   SIGMAO_COEF(10)=1.35,
 /
 &NAMCOUPLO4
 /
 &NAMCT0
   LOBS=.TRUE.,
   LOBSC1=.TRUE.,
   LOLDPP=.FALSE.,
   LREGETA=.FALSE.,
   LSCREEN=.TRUE.,
   LSCREEN_OPENMP=.TRUE.,
   LSIMOB=.FALSE.,
   LSPRT=.TRUE.,
   LTWOTL=.TRUE.,
   L_SCREEN_CALL=.FALSE.,
   NFPOS=0,
   NFRGDI=10000,
   NFRHIS=1,
   NFRPOS=10000,
   NFRSDI=10000,
   NGDITS(0)=0,
   NGDITS(1)=0,
   NHISTS(0)=-3,
   NHISTS(1)=0,
   NHISTS(2)=-3,
   NHISTS(3)=-6,
   NPOSTS(0)=1,
   NPOSTS(1)=1,
   NSDITS(0)=0,
   NSDITS(1)=0,
 /
 &NAMCT1
   LRFILAF=.FALSE.,
 /
 &NAMCUMF
   DETRPEN=0.0001,
   RCAPQADV=0.,
   RDXMAX=1.5,
   RDXMIN=1.,
   RMFDEPS=0.1,
   RPRCON=0.0025,
 /
 &NAMCUMFS
 /
 &NAMCVER
 /
 &NAMCVMNH
   LSMOOTH=.FALSE.,
   OTADJS=10800.,
   XATPERT=500.,
   XAW=1.,
   XBTPERT=0.5,
   XBW=0.5,
   XCDEPTH=1.,
   XCDEPTH_D=4000.,
   XDTPERT=0.3,
   XENTR=0.01,
 /
 &NAMDDH
 /
 &NAMDFI
   NEDFI=6,
   TAUS=10800.,
 /
 &NAMDIM
   NPROMA=-16,
 /
 &NAMDIMO
 /
 &NAMDIM_TRAJ
 /
 &NAMDPHY
   LDIRSICMOD=.TRUE.,
 /
 &NAMDPRECIPS
 /
 &NAMDVISI
 /
 &NAMDYN
 /
 &NAMDYNA
 /
 &NAMDYNCORE
 /
 &NAMEMIS_CONF
   LATLAS_AMSR2=.FALSE.,
   LATLAS_EMIS(16)=.TRUE.,
   LATLAS_GMI=.FALSE.,
   LATLAS_MWRI=.FALSE.,
   LATLAS_SAPHIR=.TRUE.,
   LDYN_AMSR2=.TRUE.,
   LDYN_AMSU=.TRUE.,
   LDYN_ATMS=.TRUE.,
   LDYN_EMIS(16)=.FALSE.,
   LDYN_GMI=.TRUE.,
   LDYN_MWHS2=.TRUE.,
   LDYN_MWRI=.TRUE.,
   LDYN_SSMIS=.TRUE.,
   LDYN_TSKIN(16)=.TRUE.,
   LICE_AMSU=.TRUE.,
   LICE_ATMS=.TRUE.,
   LICE_SSMIS=.TRUE.,
   LUSE_DYN_TSKIN(16)=.TRUE.,
   LUSE_TELSEM=.TRUE.,
   MTSKIN_CHAN(16)=1194,
 /
 &NAMENKF
 /
 &NAMENSCOV
 /
 &NAMFA
   NBITCS=30,
   NBITPG=30,
 /
 &NAMFAINIT
 /
 &NAMFPC
 /
 &NAMFPD
 /
 &NAMFPDY2
 /
 &NAMFPDYF
 /
 &NAMFPDYH
 /
 &NAMFPDYI
 /
 &NAMFPDYP
 /
 &NAMFPDYS
 /
 &NAMFPDYT
 /
 &NAMFPDYV
 /
 &NAMFPF
 /
 &NAMFPG
 /
 &NAMFPIOS
 /
 &NAMFPMOVE
 /
 &NAMFPOBJ
 /
 &NAMFPPHY
 /
 &NAMFPSC2
 /
 &NAMFPSC2_DEP
 /
 &NAMGEM
 /
 &NAMGFL
   YA_NL%LGP=.TRUE.,
   YA_NL%NREQIN=0,
   YIRAD_NL%LGP=.TRUE.,
   YIRAD_NL%NREQIN=0,
   YI_NL%LADV=.TRUE.,
   YI_NL%LGP=.TRUE.,
   YI_NL%LGPINGP=.TRUE.,
   YI_NL%LPHY=.FALSE.,
   YI_NL%LQM=.TRUE.,
   YI_NL%LREQOUT=.TRUE.,
   YI_NL%LT1=.TRUE.,
   YI_NL%NREQIN=1,
   YLRAD_NL%LGP=.TRUE.,
   YLRAD_NL%NREQIN=0,
   YL_NL%LADV=.TRUE.,
   YL_NL%LGP=.TRUE.,
   YL_NL%LGPINGP=.TRUE.,
   YL_NL%LPHY=.FALSE.,
   YL_NL%LQM=.TRUE.,
   YL_NL%LREQOUT=.TRUE.,
   YL_NL%LT1=.TRUE.,
   YL_NL%NREQIN=1,
   YQ_NL%LVWENO=.TRUE.,
   YRCONV_NL%LGP=.TRUE.,
   YRCONV_NL%NREQIN=0,
   YR_NL%LADV=.TRUE.,
   YR_NL%LGP=.TRUE.,
   YR_NL%LGPINGP=.TRUE.,
   YR_NL%LPHY=.FALSE.,
   YR_NL%LQM=.TRUE.,
   YR_NL%LREQOUT=.TRUE.,
   YR_NL%LT1=.TRUE.,
   YR_NL%NREQIN=1,
   YSCONV_NL%LGP=.TRUE.,
   YSCONV_NL%NREQIN=0,
   YS_NL%LADV=.TRUE.,
   YS_NL%LGP=.TRUE.,
   YS_NL%LGPINGP=.TRUE.,
   YS_NL%LPHY=.FALSE.,
   YS_NL%LQM=.TRUE.,
   YS_NL%LREQOUT=.TRUE.,
   YS_NL%LT1=.TRUE.,
   YS_NL%NREQIN=1,
   YTKE_NL%LADV=.TRUE.,
   YTKE_NL%LGP=.TRUE.,
   YTKE_NL%LGPINGP=.TRUE.,
   YTKE_NL%LQM=.TRUE.,
   YTKE_NL%LREQOUT=.TRUE.,
   YTKE_NL%LT1=.TRUE.,
   YTKE_NL%NCOUPLING=0,
   YTKE_NL%NREQIN=1,
 /
 &NAMGRIB
 /
 &NAMGWD
 /
 &NAMGWDIAG
 /
 &NAMGWWMS
 /
 &NAMIAU
 /
 &NAMICE
 /
 &NAMINI
   LBIAS=.TRUE.,
   LDFI=.TRUE.,
   LINCR=.FALSE.,
 /
 &NAMINTFLEX
 /
 &NAMIOMI
 /
 &NAMIOS
 /
 &NAMIO_SERV
 /
 &NAMJBCODES
 /
 &NAMJG
   CONFIG%REDNMC=1.,
 /
 &NAMLCZ
 /
 &NAMLIMA
 /
 &NAMLSFORC
 /
 &NAMMARS
 /
 &NAMMCC
 /
 &NAMMCUF
 /
 &NAMMETHOX
 /
 &NAMMKODB
   LBIASCV=.TRUE.,
   LHBIASC=.FALSE.,
   LSCATINT=.TRUE.,
   LTBIASBUFR=.FALSE.,
   LTBIASC=.FALSE.,
   L_NEW_RH_BIAS=.FALSE.,
   L_NEW_T_BIAS=.FALSE.,
   L_SCAT_BIASSIG=.FALSE.,
   NBIASCOR=0,
 /
 &NAMMODERR
 /
 &NAMMTS
 /
 &NAMMWAVE
   LDMWAVE_LAND=.TRUE.,
   LDMWAVE_SEAICE=.TRUE.,
 /
 &NAMNORGWD
 /
 &NAMNPROF
   NOBSPROFS(10)=31,
 /
 &NAMNUD
 /
 &NAMNUDGLH
 /
 &NAMOBS
   LCACHMT=.TRUE.,
   LCAPACH=.TRUE.,
   LMKCMARPL(1,5)=.FALSE.,
   LMKCMARPL(1,9)=.FALSE.,
   LMKCMARPL(2,5)=.FALSE.,
   LMKCMARPL(2,9)=.TRUE.,
   LMKCMARPL(3,5)=.FALSE.,
   LMKCMARPL(3,9)=.FALSE.,
   LMKCMARPL(4,5)=.FALSE.,
   LMKCMARPL(4,9)=.FALSE.,
   LMKCMARPL(5,5)=.FALSE.,
   LMKCMARPL(5,9)=.FALSE.,
   LMKCMARPL(6,5)=.FALSE.,
   LMKCMARPL(6,9)=.FALSE.,
   LMKCMARPL(7,5)=.FALSE.,
   LMKCMARPL(7,9)=.FALSE.,
   LMKCMARPL(8,5)=.FALSE.,
   LMKCMARPL(8,9)=.FALSE.,
   LMKCMARPL(9,5)=.FALSE.,
   LMKCMARPL(9,9)=.FALSE.,
   LMKCMARPL(10,5)=.FALSE.,
   LMKCMARPL(10,9)=.FALSE.,
   LMKCMARPL(11,5)=.FALSE.,
   LMKCMARPL(11,9)=.FALSE.,
   LMKCMARPL(12,5)=.FALSE.,
   LMKCMARPL(12,9)=.FALSE.,
   LMKCMARPL(13,5)=.FALSE.,
   LMKCMARPL(13,9)=.FALSE.,
   LREDMO=.FALSE.,
   LRSTBIAS_ODB=.TRUE.,
   LSOE=.TRUE.,
   L_F_SCR_WORK_TS=.FALSE.,
   NSCATT_THIN=1,
 /
 &NAMONEDVAR
 /
 &NAMOOPS
 /
 &NAMOPH
 /
 &NAMOPTCMEM
 /
 &NAMPAR0
   MBX_SIZE=2048000000,
   MP_TYPE=2,
   NOUTPUT=1,
   NPRGPEW=__PART_TASKS2D_X_XCLOSETO_16__,
   NPRGPNS=__PART_TASKS2D_Y_XCLOSETO_16__,
   NPROC='NBPROC',
   NPRTRV=__PART_TASKS2D_X_XCLOSETO_16__,
   NPRTRW=__PART_TASKS2D_Y_XCLOSETO_16__,
   NSPECRESMIN=1199,
 /
 &NAMPAR1
   LEQ_REGIONS=.TRUE.,
   LSLONDEM=.TRUE.,
   LSPLIT=.FALSE.,
   NCOMBFLEN=1638400,
   NSTRIN='NBPROC',
   NSTROUT=36,
 /
 &NAMPARAR
 /
 &NAMPERTOBS
 /
 &NAMPERTPAR
 /
 &NAMPHMSE
   LPGDFWR=.FALSE.,
 /
 &NAMPHY
   CGMIXLEN='AY',
   LADJCLD=.TRUE.,
   LAERODES=.TRUE.,
   LAEROLAN=.TRUE.,
   LAEROSEA=.TRUE.,
   LAEROSOO=.TRUE.,
   LCONDWT=.TRUE.,
   LCVPPKF=.TRUE.,
   LCVRA=.FALSE.,
   LCVTDK=.TRUE.,
   LDIFCONS=.TRUE.,
   LECDEEP=.FALSE.,
   LECSHAL=.TRUE.,
   LECT=.TRUE.,
   LECTFL=.TRUE.,
   LECTFL0=.TRUE.,
   LECTPRODCVP=.TRUE.,
   LEDMFI=.FALSE.,
   LFLUSO=.TRUE.,
   LFPCOR=.TRUE.,
   LGLACIERS=.TRUE.,
   LGPCMT=.FALSE.,
   LNCVPGY=.FALSE.,
   LNEBECT=.FALSE.,
   LNEWD=.TRUE.,
   LNOIAS=.TRUE.,
   LO3ABC=.TRUE.,
   LO3FL=.TRUE.,
   LPROCLD=.TRUE.,
   LRAY=.FALSE.,
   LRAYFM=.TRUE.,
   LRAYLU=.TRUE.,
   LRNUMX=.TRUE.,
   LSMITH_CDEV=.TRUE.,
   LSSD=.TRUE.,
   LSTRA=.FALSE.,
   LVGSN=.TRUE.,
   LZ0HSREL=.TRUE.,
   NCALLRAD=2,
   NSOLE=1,
 /
 &NAMPHY0
   AECLS4=3.,
   ALMAVE=0.,
   ALMAVX=1000.,
   ECTMAX=35.,
   EDD=1.,
   EDK=1.,
   GCVHMIN=30000.,
   GCVNU=0.00005,
   GCVOMCA=-1.918,
   GCVOMCC=1.35,
   GCVOMDPS=2000.,
   GCVOMGE=1.,
   GCVOMGQ=0.,
   GCVOMGS=1.,
   GCVOMGSX=0.5,
   GCVPSI=1.,
   GCVPSIE=1.,
   GCVRHMAX=1.,
   GCVRHMIN=0.5,
   GDDEVA=0.2,
   GWDCD=5.4,
   GWDSE=0.005,
   GWDVALI=0.5,
   QSNEBC=-1.,
   QSSUSC=5.,
   RCVEVAP=0.25,
   REFLKUO=5000.,
   REVASX=2.0D-7,
   RFACNSM=1.2,
   RFLCHCE=0.25,
   RHCRIT2=0.95,
   RICRLM=0.5,
   RKFBTAU=7200.,
   RPRTH=1.,
   RQCRNS=0.,
   RQICRSN=1.,
   RQICRT2=0.,
   RQICVMIN=0.00001,
   RQLCR=0.0005,
   SXNBCO=1.,
   TDDGP=0.6,
   TFVI=0.08,
   TFVL=0.02,
   TFVLD=0.02,
   TFVS=1.5,
   TUDGP=0.6,
   USURIC=0.175,
   USURICL=1.,
   USURID=0.1,
   VZ0CM=0.0001,
   XBLM=8.5,
   XMAXLM=5000.,
   XMINLM=10.,
 /
 &NAMPHY1
   ALBMIN=0.65,
   ALCRIN=0.81,
   ALRCN1=0.01,
   EMMGLA=0.98,
   EMMMER=0.99,
 /
 &NAMPHY2
   FACRAF=4.,
   XMULAF=0.,
 /
 &NAMPHY3
 /
 &NAMPHYDS
 /
 &NAMPPC
 /
 &NAMPPVI
 /
 &NAMPRE
 /
 &NAMPSOT
 /
 &NAMRAD15
 /
 &NAMRADCMEM
 /
 &NAMRCF
 /
 &NAMRCOEF
 /
 &NAMRES
 /
 &NAMRGRI
 /
 &NAMRINC
 /
 &NAMRIP
   CSTOP="'FCSTOP'",
   TSTEP='TIMESTEP',
 /
 &NAMRIP0
 /
 &NAMRLX
 /
 &NAMSATS
   LCO2_DIAG_AIRS=.TRUE.,
   LCO2_DIAG_IASI=.TRUE.,
   LPARTIAL_COEF_FILES=.TRUE.,
   MEMIS_SW=1,
 /
 &NAMSATSIM
 /
 &NAMSCC
   BC_QCSAPHIR(1:6)=0.8,0.,-1.3,-1.9,-2.,-2.6,
   LHSCAT_OUTERSWATH_REJ=.FALSE.,
   LOSCAT_OUTERSWATH_REJ=.FALSE.,
   LPERTURB=.TRUE.,
   LPERT_SATOB_CORR=.FALSE.,
   LRSCAT_OUTERSWATH_REJ=.FALSE.,
   LSCDPR=.FALSE.,
   LSCRE4D=.TRUE.,
   LSSCAT_OUTERSWATH_REJ=.FALSE.,
   NAEMEMBER='PERTURB',
   NAENSEMBLE=1,
   NSATAM_CHOSENQIBYPROD(5)=1,
   NSATAM_THINPRODLST(5)=176,
   NSCAWSOLMAX(2)=2,
   NSCAWSOLMAX(3)=4,
   NTHINSCA=1,
   NTHINSCA_GEOM=0,
   RFIND_AIREP=62579.,
   RFIND_GPSRO=139000.,
   RFIND_RAD1C(0)=120000.,
   RFIND_RAD1C(1)=240000.,
   RFIND_RAD1C(2)=240000.,
   RFIND_RAD1C(3)=120000.,
   RFIND_RAD1C(4)=115000.,
   RFIND_RAD1C(6)=120000.,
   RFIND_RAD1C(10)=115000.,
   RFIND_RAD1C(11)=115000.,
   RFIND_RAD1C(15)=95000.,
   RFIND_RAD1C(16)=95000.,
   RFIND_RAD1C(19)=115000.,
   RFIND_RAD1C(20)=120000.,
   RFIND_RAD1C(21)=110000.,
   RFIND_RAD1C(22)=110000.,
   RFIND_RAD1C(24)=120000.,
   RFIND_RAD1C(27)=115000.,
   RFIND_RAD1C(34)=120000.,
   RFIND_RAD1C(43)=120000.,
   RFIND_RAD1C(44)=120000.,
   RFIND_RAD1C(56)=115000.,
   RFIND_RAD1C(63)=120000.,
   RFIND_RAD1C(71)=115000.,
   RFIND_RAD1C(73)=115000.,
   RFIND_SATAM=200000.,
   RFIND_SATOB=200000.,
   RFIND_SCATT=90000.,
   RFIND_TOV=240000.,
   RMIND_GPSRO=139000.,
   RMIND_RAD1C(0)=120000.,
   RMIND_RAD1C(1)=240000.,
   RMIND_RAD1C(2)=240000.,
   RMIND_RAD1C(3)=120000.,
   RMIND_RAD1C(4)=115000.,
   RMIND_RAD1C(6)=120000.,
   RMIND_RAD1C(10)=115000.,
   RMIND_RAD1C(11)=115000.,
   RMIND_RAD1C(15)=95000.,
   RMIND_RAD1C(16)=95000.,
   RMIND_RAD1C(19)=115000.,
   RMIND_RAD1C(20)=120000.,
   RMIND_RAD1C(21)=110000.,
   RMIND_RAD1C(22)=110000.,
   RMIND_RAD1C(24)=120000.,
   RMIND_RAD1C(27)=115000.,
   RMIND_RAD1C(34)=120000.,
   RMIND_RAD1C(43)=120000.,
   RMIND_RAD1C(44)=120000.,
   RMIND_RAD1C(56)=115000.,
   RMIND_RAD1C(63)=120000.,
   RMIND_RAD1C(71)=115000.,
   RMIND_RAD1C(73)=115000.,
   RMIND_SATAM=200000.,
   RMIND_SATOB=200000.,
   RMIND_SCATT=90000.,
   RMIND_TOV=240000.,
   XYSHIFT_THIBOX(3)=0.5,
   XYSHIFT_THIBOX(7)=0.5,
   XYSHIFT_THIBOX(9)=0.5,
   XYSHIFT_THIBOX(10)=0.5,
 /
 &NAMSCEN
 /
 &NAMSCM
 /
 &NAMSEKF
 /
 &NAMSENS
 /
 &NAMSFXCMP
 /
 &NAMSIMPHL
 /
 &NAMSPNG
 /
 &NAMSPP
 /
 &NAMSPSDT
 /
 &NAMSTA
 /
 &NAMSTOPH
 /
 &NAMSWE
 /
 &NAMTESTVAR
 /
 &NAMTHLIM
 /
 &NAMTOPH
   ETCVIM=1000.,
   ETNEBU=1000.,
   ETPLUI=1000.,
   XDRMTK=2.0D-8,
   XDRMTP=800.,
   XDRMTX=4.0D-7,
   XDRMUK=1.0D-7,
   XDRMUP=800.,
   XDRMUX=0.000002,
 /
 &NAMTRAJ
 /
 &NAMTRAJP
 /
 &NAMTRANS
 /
 &NAMTRANS0
 /
 &NAMTS
 /
 &NAMVAR
   LCLDSINK=.FALSE.,
   LVARBC=.TRUE.,
   MUPTRA=2,
   NUPTRA=-1,
 /
 &NAMVARBC
   NVERBOSE=0,
 /
 &NAMVARBC_AIREP
   LBC_ACARS=.TRUE.,
   LBC_AIRCT=.TRUE.,
   LBC_AIREP=.TRUE.,
   LBC_AMDAR=.TRUE.,
   LBC_CODAR=.TRUE.,
   LBC_COLBA=.TRUE.,
 /
 &NAMVARBC_ALLSKY
 /
 &NAMVARBC_GBRAD
 /
 &NAMVARBC_MODES
 /
 &NAMVARBC_RAD
   LBC_ATMS=.TRUE.,
   YCONFIG(3,3)%NCSTART=0,
 /
 &NAMVARBC_RSONDE
 /
 &NAMVARBC_SFCOBS
   LBC_SFCOBS_APD=.FALSE.,
 /
 &NAMVARBC_TCWV
 /
 &NAMVARBC_TO3
 /
 &NAMVAREPS
 /
 &NAMVDF
 /
 &NAMVDOZ
 /
 &NAMVOLCANO
 /
 &NAMVRTL
 /
 &NAMVV0
 /
 &NAMVV1
 /
 &NAMVWRK
 /
 &NAMWAVELETJB
 /
 &NAMXFU
 /
 &NAM_ASSIM
 /
 &NAM_CANAPE
 /
 &NAM_DISTRIBUTED_VECTORS
 /
 &NAM_REPROD_OPER
 /
 &NAPHLC
 /
 &NEMCT0
 /
 &NEMDIM
 /
 &NEMDYN
 /
 &NEMELBC0A
 /
 &NEMELBC0B
 /
 &NEMFPEZO
 /
 &NEMGEO
 /
 &NEMJK
 /
 &NEMVAR
 /
 &NEMWAVELET
 /
 &RADIATION
   CLOUD_FRACTION_THRESHOLD=0.000001,
   CLOUD_INHOM_DECORR_SCALING=0.5,
   CLOUD_MIXING_RATIO_THRESHOLD=1.00D-9,
   DIRECTORY_NAME='.',
   DO_CLEAR=.TRUE.,
   DO_FU_LW_ICE_OPTICS_BUG=.FALSE.,
   DO_LW_AEROSOL_SCATTERING=.FALSE.,
   DO_LW_CLOUD_SCATTERING=.FALSE.,
   DO_LW_DERIVATIVES=.TRUE.,
   DO_SAVE_GPOINT_FLUX=.FALSE.,
   DO_SAVE_RADIATIVE_PROPERTIES=.FALSE.,
   DO_SAVE_SPECTRAL_FLUX=.FALSE.,
   DO_SURFACE_SW_SPECTRAL_FLUX=.TRUE.,
   DO_SW_DELTA_SCALING_WITH_GASES=.TRUE.,
   GAS_MODEL_NAME='RRTMG-IFS',
   ICE_MODEL_NAME='Fu-IFS',
   IVERBOSE=1,
   IVERBOSESETUP=3,
   LIQUID_MODEL_NAME='Slingo',
   LW_SOLVER_NAME='McICA',
   OVERLAP_SCHEME_NAME='Exp-Exp',
   SW_SOLVER_NAME='McICA',
   USE_AEROSOLS=.TRUE.,
   USE_BETA_OVERLAP=.FALSE.,
 /
