 &NACIETEO
 /
 &NACOBS
 /
 &NACTAN
 /
 &NACTEX
 /
 &NACVEG
 /
 &NADOCK
 /
 &NAEAEM7
 /
 &NAEAER
 /
 &NAECOAPHY
 /
 &NAEPHLI
 /
 &NAEPHY
 /
 &NAERAD
 /
 &NAERCLI
 /
 &NAETLDIAG
 /
 &NAEVOL
 /
 &NAIMPO
 /
 &NALORI
 /
 &NAMACV
 /
 &NAMAERDET
 /
 &NAMAFN
   GFP_SFIS%IBITS=16,
   GFP_ST%IANO=0,
   GFP_ST%IBITS=12,
   GFP_X10U%IANO=0,
   GFP_X10U%IBITS=12,
   GFP_X10V%IANO=0,
   GFP_X10V%IBITS=12,
   GFP_X2RH%IANO=0,
   GFP_X2RH%IBITS=12,
   GFP_X2T%IANO=1,
   GFP_X2TPW%IANO=0,
   GFP_XCCC%IBITS=8,
   GFP_XHCC%IBITS=8,
   GFP_XLCC%IBITS=8,
   GFP_XMCC%IBITS=8,
   GFP_XN2T%IBITS=12,
   GFP_XTCC%IBITS=8,
   GFP_XUGST%IANO=0,
   GFP_XUGST%IBITS=12,
   GFP_XVGST%IANO=0,
   GFP_XVGST%IBITS=12,
   GFP_XX2T%IBITS=12,
   GFP_XXDIAGH%IBITS=12,
   TFP_ABS%ZFK=32.,
   TFP_CLF%IBITS=6,
   TFP_EDR%CLNAME='EDR',
   TFP_EDR%IBITS=16,
   TFP_GR%IBITS=12,
   TFP_HL%IBITS=12,
   TFP_HTB%IBITS=16,
   TFP_HTB%LLGP=.TRUE.,
   TFP_HU%IBITS=12,
   TFP_MSAT9C2%IBITS=12,
   TFP_MSAT9C6%IBITS=12,
   TFP_MSL%IBITS=12,
   TFP_MSLNH%IBITS=12,
   TFP_PV%ZFK=64.,
   TFP_RCLS%IBITS=12,
   TFP_RR%IBITS=12,
   TFP_SN%IBITS=12,
   TFP_SREDBX%CLNAME='REFL_DBZ.MAX.ENS',
   TFP_T%IBITS=12,
   TFP_TCLS%IBITS=12,
   TFP_TH%IBITS=12,
   TFP_THPW%IBITS=12,
   TFP_THV%IBITS=12,
   TFP_TN%IBITS=12,
   TFP_TWV%IBITS=12,
   TFP_TX%IBITS=12,
   TFP_U%IBITS=12,
   TFP_V%IBITS=12,
   TFP_VOR%ZFK=32.,
   TFP_VV%ZFK=32.,
 /
 &NAMARG
 /
 &NAMARPHY
 /
 &NAMCA
 /
 &NAMCAPE
 /
 &NAMCFU
 /
 &NAMCHEM
 /
 &NAMCHET
 /
 &NAMCHK
 /
 &NAMCLA
 /
 &NAMCLDP
 /
 &NAMCLI
 /
 &NAMCLOP15
 /
 &NAMCLTC
 /
 &NAMCMEM_MW
 /
 &NAMCOK
 /
 &NAMCOM
 /
 &NAMCOMPO
 /
 &NAMCOSJO
 /
 &NAMCOUPLO4
 /
 &NAMCT0
 /
 &NAMCT1
 /
 &NAMCUMF
 /
 &NAMCUMFS
 /
 &NAMCVER
 /
 &NAMCVMNH
 /
 &NAMDDH
 /
 &NAMDFI
 /
 &NAMDIM
 /
 &NAMDIMO
 /
 &NAMDIM_TRAJ
 /
 &NAMDPHY
 /
 &NAMDPRECIPS
 /
 &NAMDVISI
 /
 &NAMDYN
 /
 &NAMDYNA
 /
 &NAMDYNCORE
 /
 &NAMEMIS_CONF
 /
 &NAMENKF
 /
 &NAMENSCOV
 /
 &NAMFA
 /
 &NAMFAINIT
 /
 &NAMFPC
   CFP2DF(1)='SURFPRESSION',
   CFP2DF(2)='MSL_NHPRESSURE',
   CFP2DF(3)='SURFTOT.WAT.VAPO',
   CFP2DF(4)='SURFISOTPW0.MALT',
   CFP2DF(5)='SURFISOTPW1.MALT',
   CFP2DF(6)='SURFISOTPW2.MALT',
   CFP2DF(7)='C002_METEOSAT_09_SEVIRI.POS',
   CFP2DF(8)='C006_METEOSAT_09_SEVIRI.POS',
   CFP2DF(9)='SURFCAPE.POS.F00',
   CFP2DF(10)='SURFCIEN.POS.F00',
   CFP2DF(11)='ATMOMLCAPE.POS',
   CFP2DF(12)='SURFREFLECT.MAX',
   CFP2DF(13)='REFL_DBZ.MAX.ENS',
   CFP2DF(14)='ECHOTOP',
   CFP2DF(15)='ATMOCLD.CEIL.P',
   CFP2DF(16)='ATMOCLD.CEIL.H',
   CFP2DF(17)='ATMOCLD.BASE.P',
   CFP2DF(18)='ATMOCLD.BASE.H',
   CFP2DF(19)='ATMOCLD.TOP.P',
   CFP2DF(20)='ATMOCLD.TOPCON.P',
   CFP2DF(21)='ATMOCLD.BASCON.P',
   CFP3DF(1)='GEOPOTENTIEL',
   CFP3DF(2)='TEMPERATURE',
   CFP3DF(3)='VENT_ZONAL',
   CFP3DF(4)='VENT_MERIDIEN',
   CFP3DF(5)='HUMI_RELATIVE',
   CFP3DF(6)='THETA_PRIM_W',
   CFP3DF(7)='PRESSURE',
   CFP3DF(8)='ABS_VORTICITY',
   CFP3DF(9)='VITESSE_VERTICALE',
   CFP3DF(10)='TEMPE_POTENT',
   CFP3DF(11)='POT_VORTICIT',
   CFP3DF(12)='SIM_REFLECTI',
   CFP3DF(13)='RAIN',
   CFP3DF(14)='SNOW',
   CFP3DF(15)='GRAUPEL',
   CFP3DF(16)='ICE_CRYSTAL',
   CFP3DF(17)='CLOUD_WATER',
   CFP3DF(18)='VERT.VELOCIT',
   CFP3DF(19)='DIVERGENCE',
   CFP3DF(20)='THETA_VIRTUA',
   CFP3DF(21)='TKE',
   CFP3DF(22)='CLOUD_FRACTI',
   CFP3DF(23)='ISOT_ALTIT',
   CFP3DF(24)='EDR',
   CFP3DF(25)='REFLEC_DBZ',
   CFP3DF(26)='TPRIM_W',
   CFP3DF(27)='ICING.AERO',
   CFPCFU(1)='SURFTENS.TOTA.ZO',
   CFPCFU(2)='SURFTENS.TOTA.ME',
   CFPCFU(3)='SURFACCPLUIE',
   CFPCFU(4)='SURFACCNEIGE',
   CFPCFU(5)='SURFACCGRAUPEL',
   CFPCFU(6)='SOMMFLU.RAY.SOLA',
   CFPCFU(7)='SURFFLU.RAY.SOLA',
   CFPCFU(8)='SOMMFLU.RAY.THER',
   CFPCFU(9)='SURFFLU.RAY.THER',
   CFPCFU(10)='SURFFLU.LAT.MTOT',
   CFPCFU(11)='SURFFLU.MTOTA.NE',
   CFPCFU(12)='SURFFLU.CHA.SENS',
   CFPCFU(13)='SURFRAYT SOLA DE',
   CFPCFU(14)='SURFRAYT THER DE',
   CFPCFU(15)='SURFRAYT SOL CL',
   CFPCFU(16)='SURFRAYT THER CL',
   CFPCFU(17)='SURFRAYT DIR SUR',
   CFPCFU(18)='SURFDIAG.FLASH',
   CFPDIR='./diag/PF',
   CFPDOM(1)='EURW1S40',
   CFPFMT='LALON',
   CFPMONIPATH_IN='./diag',
   CFPMONIPATH_OUT='./diag',
   CFPPHY(1)='SURFTEMPERATURE',
   CFPPHY(2)='INTSURFGEOPOTENT',
   CFPPHY(3)='SURFRESERV.NEIGE',
   CFPXFU(1)='CLSTEMPERATURE',
   CFPXFU(2)='CLSHUMI.RELATIVE',
   CFPXFU(3)='CLSVENT.ZONAL',
   CFPXFU(4)='CLSVENT.MERIDIEN',
   CFPXFU(5)='SURFNEBUL.TOTALE',
   CFPXFU(6)='SURFNEBUL.HAUTE',
   CFPXFU(7)='SURFNEBUL.MOYENN',
   CFPXFU(8)='SURFNEBUL.BASSE',
   CFPXFU(9)='CLSU.RAF60M.XFU',
   CFPXFU(10)='CLSV.RAF60M.XFU',
   CFPXFU(11)='CLSMAXI.TEMPERAT',
   CFPXFU(12)='CLSMINI.TEMPERAT',
   CFPXFU(13)='CLPMHAUT.MOD.XFU',
   CFPXFU(14)='SURFDIAGHAIL',
   CFPXFU(15)='SURFACCGRELE',
   CFPXFU(16)='CLSVISIN_60',
   CFPXFU(17)='CLSVISIHYDN60',
   CFPXFU(18)='CLD_WX_60M',
   CFPXFU(19)='CLSPTYPE_60M',
   CFPXFU(20)='CLSPTYPESEV_60M',
   CFPXFU(21)='CLSTPRIM_W',
   CFPXFU(22)='SURFHAUTEUR.NEIG',
   LCRITSNOWTEMP=.FALSE.,
   LFPMOIS=.TRUE.,
   LWIDER_DOM=.TRUE.,
   NFITI=1,
   NFITV=1,
   NFPCAPE=5,
   NFPGRIB=141,
   NFPINPHY=4,
   NITERPV=8,
   RENTRA=0.0012,
   RFP3H(1)=10.,
   RFP3H(2)=20.,
   RFP3H(3)=35.,
   RFP3H(4)=50.,
   RFP3H(5)=75.,
   RFP3H(6)=100.,
   RFP3H(7)=150.,
   RFP3H(8)=200.,
   RFP3H(9)=250.,
   RFP3H(10)=375.,
   RFP3H(11)=500.,
   RFP3H(12)=625.,
   RFP3H(13)=750.,
   RFP3H(14)=875.,
   RFP3H(15)=1000.,
   RFP3H(16)=1125.,
   RFP3H(17)=1250.,
   RFP3H(18)=1375.,
   RFP3H(19)=1500.,
   RFP3H(20)=1750.,
   RFP3H(21)=2000.,
   RFP3H(22)=2250.,
   RFP3H(23)=2500.,
   RFP3H(24)=2750.,
   RFP3H(25)=3000.,
   RFP3I(1)=-273.15,
   RFP3I(2)=-263.15,
   RFP3I(3)=-261.15,
   RFP3I(4)=-253.15,
   RFP3P(1)=10000.,
   RFP3P(2)=12500.,
   RFP3P(3)=15000.,
   RFP3P(4)=17500.,
   RFP3P(5)=20000.,
   RFP3P(6)=22500.,
   RFP3P(7)=25000.,
   RFP3P(8)=27500.,
   RFP3P(9)=30000.,
   RFP3P(10)=35000.,
   RFP3P(11)=40000.,
   RFP3P(12)=45000.,
   RFP3P(13)=50000.,
   RFP3P(14)=55000.,
   RFP3P(15)=60000.,
   RFP3P(16)=65000.,
   RFP3P(17)=70000.,
   RFP3P(18)=75000.,
   RFP3P(19)=80000.,
   RFP3P(20)=85000.,
   RFP3P(21)=90000.,
   RFP3P(22)=92500.,
   RFP3P(23)=95000.,
   RFP3P(24)=100000.,
   RFP3PV(1)=0.0000015,
   RFP3PV(2)=0.000002,
   RFPCD2=5.,
   RFPCSAB=50.,
   RFPVCAP=7000.,
 /
 &NAMFPD
   NFPRLX=1,
   NFPRLY=3,
   NFPRUX=2,
   NFPRUY=2,
   NLAT(1)=717,
   NLON(1)=1121,
   RDELX(1)=0.025,
   RDELY(1)=0.025,
   RLATC(1)=46.45,
   RLONC(1)=2.,
 /
 &NAMFPDY2
 /
 &NAMFPDYF
 /
 &NAMFPDYH
 /
 &NAMFPDYI
 /
 &NAMFPDYP
 /
 &NAMFPDYS
 /
 &NAMFPDYT
 /
 &NAMFPDYV
 /
 &NAMFPF
   NFMAX(1)=60,
 /
 &NAMFPG
 /
 &NAMFPIOS
   NFPXFLD=128,
 /
 &NAMFPMOVE
 /
 &NAMFPOBJ
 /
 &NAMFPPHY
 /
 &NAMFPSC2
   NFPROMA=-24,
 /
 &NAMFPSC2_DEP
   NFPROMA_DEP=-24,
 /
 &NAMGEM
 /
 &NAMGFL
 /
 &NAMGRIB
 /
 &NAMGWD
 /
 &NAMGWDIAG
 /
 &NAMGWWMS
 /
 &NAMIAU
 /
 &NAMICE
 /
 &NAMINI
 /
 &NAMINTFLEX
 /
 &NAMIOMI
 /
 &NAMIOS
 /
 &NAMIO_SERV
 /
 &NAMJBCODES
 /
 &NAMJG
 /
 &NAMLCZ
 /
 &NAMLIMA
 /
 &NAMLSFORC
 /
 &NAMMARS
 /
 &NAMMCC
 /
 &NAMMCUF
 /
 &NAMMETHOX
 /
 &NAMMKODB
 /
 &NAMMODERR
 /
 &NAMMTS
 /
 &NAMMWAVE
 /
 &NAMNORGWD
 /
 &NAMNPROF
 /
 &NAMNUD
 /
 &NAMNUDGLH
 /
 &NAMOBS
 /
 &NAMONEDVAR
 /
 &NAMOOPS
 /
 &NAMOPH
 /
 &NAMOPTCMEM
 /
 &NAMPAR0
 /
 &NAMPAR1
 /
 &NAMPARAR
 /
 &NAMPERTOBS
 /
 &NAMPERTPAR
 /
 &NAMPHMSE
 /
 &NAMPHY
 /
 &NAMPHY0
 /
 &NAMPHY1
 /
 &NAMPHY2
 /
 &NAMPHY3
 /
 &NAMPHYDS
 /
 &NAMPPC
 /
 &NAMPPVI
 /
 &NAMPRE
 /
 &NAMPSOT
 /
 &NAMRAD15
 /
 &NAMRADCMEM
 /
 &NAMRCF
 /
 &NAMRCOEF
 /
 &NAMRES
 /
 &NAMRGRI
 /
 &NAMRINC
 /
 &NAMRIP
 /
 &NAMRIP0
 /
 &NAMRLX
 /
 &NAMSATS
 /
 &NAMSATSIM
 /
 &NAMSCC
 /
 &NAMSCEN
 /
 &NAMSCM
 /
 &NAMSEKF
 /
 &NAMSENS
 /
 &NAMSFXCMP
 /
 &NAMSIMPHL
 /
 &NAMSPNG
 /
 &NAMSPP
 /
 &NAMSPSDT
 /
 &NAMSTA
 /
 &NAMSTOPH
 /
 &NAMSWE
 /
 &NAMTESTVAR
 /
 &NAMTHLIM
 /
 &NAMTOPH
 /
 &NAMTRAJ
 /
 &NAMTRAJP
 /
 &NAMTRANS
 /
 &NAMTRANS0
 /
 &NAMTS
 /
 &NAMVAR
 /
 &NAMVARBC
 /
 &NAMVARBC_AIREP
 /
 &NAMVARBC_ALLSKY
 /
 &NAMVARBC_GBRAD
 /
 &NAMVARBC_MODES
 /
 &NAMVARBC_RAD
 /
 &NAMVARBC_RSONDE
 /
 &NAMVARBC_SFCOBS
 /
 &NAMVARBC_TCWV
 /
 &NAMVARBC_TO3
 /
 &NAMVAREPS
 /
 &NAMVDF
 /
 &NAMVDOZ
 /
 &NAMVOLCANO
 /
 &NAMVRTL
 /
 &NAMVV0
 /
 &NAMVV1
 /
 &NAMVWRK
 /
 &NAMWAVELETJB
 /
 &NAMXFU
 /
 &NAM_ASSIM
 /
 &NAM_CANAPE
 /
 &NAM_DISTRIBUTED_VECTORS
 /
 &NAM_REPROD_OPER
 /
 &NAPHLC
 /
 &NEMCT0
 /
 &NEMDIM
 /
 &NEMDYN
 /
 &NEMELBC0A
 /
 &NEMELBC0B
 /
 &NEMFPEZO
 /
 &NEMGEO
 /
 &NEMJK
 /
 &NEMVAR
 /
 &NEMWAVELET
 /
 &RADIATION
 /
