 &NAMWAVELETJB
   WJBCONF%N_BGMEMBERS=__NBE__,
 /
