 &NAMJG
   CONFIG%LFLTBGCALC_CRT=.FALSE.,
   CONFIG%LFLTBGCALC_GAUSS=.FALSE.,
   CONFIG%LFLTBGVARENS=.TRUE.,
   CONFIG%LFLTBGVARENS_STORE=.FALSE.,
   CONFIG%LGP_FLTBGCALC=.TRUE.,
   CONFIG%NFLEVTR=90,
   CONFIG%NSMAXT=149,
 /
