 &NAERAD
   LSRTM=.FALSE.,
 /
 &NAMCAPE
   GCAPEPSD=0.5,
   LADAE=.TRUE.,
 /
 &NAMPHY
   LDPRECIPS=.TRUE.,
   LEDR=.TRUE.,
   LNEBN=.FALSE.,
   NDPRECPERIOD=__TIMESTEP__,
 /
 &NAMTOPH
   ETCVIM=5000.,
   ETNEBU=5000.,
 /
