 &NAERAD
   LSRTM=.FALSE.,
 /
 &NAMPHY
   LAERODES=.FALSE.,
   LAEROLAN=.FALSE.,
   LAEROSEA=.FALSE.,
   LAEROSOO=.FALSE.,
   LCONDWT=.FALSE.,
   LNEBN=.FALSE.,
   LO3ABC=.FALSE.,
   LVGSN=.FALSE.,
 /
 &NAMPHY0
   EDD=1.,
   EDK=1.,
   USURIC=0.175,
   USURICE=0.5,
   USURICL=1.,
   USURID=0.1,
 /
 &NAMPHY2
   LRAFTUR=.FALSE.,
   XMULAF=0.,
 /
