 &NAERAD
   LRRTM=.FALSE.,
   LSRTM=.FALSE.,
 /
 &NAMPHY
   LAERODES=.TRUE.,
   LAEROLAN=.TRUE.,
   LAEROSEA=.TRUE.,
   LAEROSOO=.TRUE.,
   LFGEL=.FALSE.,
   LO3ABC=.TRUE.,
   LSOLV=.FALSE.,
   LVGSN=.FALSE.,
 /
