 &NAEPHY
   LEMWAVE=.TRUE.,
 /
 &NAMPHY
   LAERODES=.TRUE.,
   LAEROLAN=.TRUE.,
   LAEROSEA=.TRUE.,
   LAEROSOO=.TRUE.,
   LBLVAR=.TRUE.,
   LNEBN=.FALSE.,
   LO3ABC=.TRUE.,
   LRAY=.FALSE.,
   LVGSN=.TRUE.,
 /
 &NAMPHY0
   EDK=5.,
   USURIC=0.175,
   USURICE=0.5,
   USURICL=1.,
   USURID=0.1,
 /
