 &NAERAD
   LRRTM=.FALSE.,
   LSRTM=.FALSE.,
 /
 &NAMPARAR
   NMAXITER_MICRO=1,
 /
 &NAMPHY
   LAERODES=.FALSE.,
   LAEROLAN=.FALSE.,
   LAEROSEA=.FALSE.,
   LAEROSOO=.FALSE.,
   LFGEL=.FALSE.,
   LO3ABC=.TRUE.,
   LSOLV=.FALSE.,
   LVGSN=.FALSE.,
 /
