 &NAERAD
   LRRTM=.TRUE.,
   LSRTM=.FALSE.,
   NAER=1,
   NICEOPT=3,
   NLIQOPT=3,
   NOVLP=6,
   NOZOCL=2,
   NRADFR=18,
   NRADIP=3,
   NRADLP=2,
   NSW=6,
   RLWINHF=1,
   RRE2DE=0.64952,
   RSWINHF=1,
 /
 &NAMARPHY
   LKFBCONV=.FALSE.,
   LKFBD=.FALSE.,
   LKFBS=.FALSE.,
   LMFSHAL=.TRUE.,
   LMICRO=.TRUE.,
   LMPA=.TRUE.,
   LMSE=.TRUE.,
   LTURB=.TRUE.,
 /
 &NAMCAPE
   GCAPEPSD=0.5,
   LADAE=.TRUE.,
 /
 &NAMDVISI
   HVISI=5.,
 /
 &NAMPARAR
   CFRAC_ICE_ADJUST='S',
   CFRAC_ICE_SHALLOW_MF='S',
   CMICRO='ICE3',
   CSEDIM='STAT',
   CSNOWRIMING='M90',
   LCONVHG=.TRUE.,
   LCRFLIMIT=.TRUE.,
   LCRIAUTI=.TRUE.,
   LEVLIMIT=.TRUE.,
   LFEEDBACKT=.TRUE.,
   LFPREC3D=.TRUE.,
   LNULLWETG=.TRUE.,
   LNULLWETH=.TRUE.,
   LOLSMC=.TRUE.,
   LOSEDIC=.TRUE.,
   LOSIGMAS=.TRUE.,
   LOSUBG_COND=.TRUE.,
   LSEDIM_AFTER=.FALSE.,
   LWETGPOST=.TRUE.,
   LWETHPOST=.TRUE.,
   NMAXITER_MICRO=1,
   NPRINTFR=10000,
   NPTP=1,
   RCRIAUTC=0.001,
   RCRIAUTI=0.0002,
   RT0CRIAUTI=-5.,
   VSIGQSAT=0.02,
   XFRACM90=0.1,
   XMRSTEP=0.00005,
   XSPLIT_MAXCFL=0.8,
   XTSTEP_TS=0.,
 /
 &NAMPHY
   LAERODES=.TRUE.,
   LAEROLAN=.TRUE.,
   LAEROSEA=.TRUE.,
   LAEROSOO=.TRUE.,
   LDPRECIPS=.TRUE.,
   LEDR=.TRUE.,
   LMPHYS=.TRUE.,
   LO3ABC=.TRUE.,
   LRAYFM=.TRUE.,
   NDPRECPERIOD=900,
 /
 &NAMPHY0
   ALMAV=300.,
   BEDIFV=0.05,
   ECMNP=3000.,
   GCCSV=0.,
   GCVADS=0.8,
   GCVALFA=0.000045,
   GCVBETA=0.2,
   GCVMLT=0.00016,
   GCVNU=0.000025,
   GCVPSI=1.,
   GCVPSIE=1.,
   GDDEVA=0.25,
   GDDSDE=0.5,
   GWDCD=6.,
   HUCOE=0.5,
   HUTIL=1.8,
   QSSC=400.,
   QSSUSC=0.75,
   QSSUSS=0.4,
   QSSUSV=250.,
   QSUSXC=0.0002,
   QSUSXS=0.0003,
   QXRAL=130.,
   QXRDEL=0.49,
   QXRHX=0.99,
   QXRR=0.25,
   RCVEVAP=0.25,
   REFLKUO=5000.,
   REVGSL=15.,
   SCO=-20.,
   TDDGP=0.8,
   TENTR=0.0000025,
   TENTRX=0.00008,
   TUDGP=0.8,
   UHDIFV=0.0008,
   USURIC=0.175,
   USURICE=0.5,
   USURICL=1.,
   USURID=0.1,
   USURIDE=0.25,
   VZ0CM=0.00015,
   XMAXLM=5000.,
   XMINLM=10.,
 /
 &NAMPHY1
   ALBMIN=0.65,
   ALCRIN=0.75,
   GCGEL=0.00003,
   GCGELS=0.00005,
   GNEIMX=1.8,
   GNEIMXS=1.8,
   RCTVEG(3)=0.000012,
   RCTVEG(4)=0.00001,
 /
 &NAMPHY2
   FACRAF=3.8,
   HTKERAF=20.,
   LMULAF=.TRUE.,
   LRAFTKE=.TRUE.,
   LRAFTUR=.TRUE.,
   XDAMP=1.,
   XMULAF=-1.85,
 /
 &NAMTOPH
   ETCVIM=5000.,
   ETNEBU=5000.,
   ETPLUI=5000.,
   XDRMTK=6.0D-7,
   XDRMTP=800.,
   XDRMUK=3.0D-7,
   XDRMUP=800.,
 /
