 &NAERAD
   LSRTM=.FALSE.,
 /
 &NAMPHY
   LCONDWT=.TRUE.,
   LNEBN=.FALSE.,
   LVGSN=.TRUE.,
 /
 &NAMPHY0
   EDD=1.,
   EDK=1.,
   USURIC=0.175,
   USURICL=1.,
   USURID=0.1,
 /
 &NAMPHY2
   XMULAF=0.,
 /
