 &NAERAD
   LSRTM=.FALSE.,
 /
 &NAMARPHY
   LMSE=.TRUE.,
 /
 &NAMPHY
   LRAY=.FALSE.,
 /
