 &NAERAD
   LSRTM=.FALSE.,
 /
 &NAMPHY
   LAERODES=.TRUE.,
   LAEROLAN=.TRUE.,
   LAEROSEA=.TRUE.,
   LAEROSOO=.TRUE.,
   LCONDWT=.TRUE.,
   LFGEL=.TRUE.,
   LNEBN=.FALSE.,
   LO3ABC=.TRUE.,
   LSNV=.FALSE.,
   LSOLV=.TRUE.,
   LVGSN=.TRUE.,
 /
