 &NAMSIMPHL
   LTRAJPS=.TRUE.,
   LTRAJPST=.FALSE.,
 /
