 &NAERAD
   LHGHG=.FALSE.,
   LSRTM=.FALSE.,
 /
 &NAMPHY
   LEDR=.TRUE.,
 /
