 &NAERAD
   LSRTM=.FALSE.,
 /
 &NAMCAPE
   GCAPEPSD=0.5,
   LADAE=.TRUE.,
   LMCAPEA=.TRUE.,
 /
 &NAMPHY
   LDPRECIPS=.TRUE.,
   LDPRECIPS2=.TRUE.,
   LEDR=.TRUE.,
   LNEBN=.FALSE.,
   NDPRECPERIOD=__TIMESTEP__,
   NDPRECPERIOD2=__TIMESTEP__,
 /
 &NAMTOPH
   ETCVIM=1000.,
   ETNEBU=1000.,
 /
