 &NAERAD
   LSRTM=.FALSE.,
 /
 &NAMPHY
   LAERODES=.TRUE.,
   LAEROLAN=.TRUE.,
   LAEROSEA=.TRUE.,
   LAEROSOO=.TRUE.,
   LCONDWT=.FALSE.,
   LO3ABC=.TRUE.,
   LPROCLD=.FALSE.,
   LVGSN=.TRUE.,
 /
