 &NAMMWAVE
   LDMWAVE_LAND=.TRUE.,
   LDMWAVE_SEAICE=.TRUE.,
 /
