 &NAMMWAVE
   LDMWAVE_FLUX_TO_MMR=.FALSE.,
   LDMWAVE_LAND=.TRUE.,
   LDMWAVE_SEAICE=.TRUE.,
 /
