 &NAMMWAVE
   LDMWAVE_FLUX_TO_MMR=.FALSE.,
 /
