 &NACIETEO
 /
 &NACOBS
 /
 &NACTAN
 /
 &NACTEX
 /
 &NACVEG
 /
 &NADOCK
 /
 &NAEAEM7
 /
 &NAEAER
 /
 &NAECOAPHY
 /
 &NAEPHLI
 /
 &NAEPHY
 /
 &NAERAD
 /
 &NAERCLI
 /
 &NAETLDIAG
 /
 &NAEVOL
 /
 &NAIMPO
 /
 &NALORI
 /
 &NAMACV
 /
 &NAMAERDET
 /
 &NAMAFN
 /
 &NAMARG
   CNMEXP='CEXP',
   LSLAG=.TRUE.,
   NCONF=131,
   NSUPERSEDE=1,
 /
 &NAMARPHY
 /
 &NAMCA
 /
 &NAMCAPE
 /
 &NAMCFU
 /
 &NAMCHEM
 /
 &NAMCHET
 /
 &NAMCHK
 /
 &NAMCLA
 /
 &NAMCLDP
 /
 &NAMCLI
 /
 &NAMCLOP15
 /
 &NAMCLTC
 /
 &NAMCMEM_MW
 /
 &NAMCOK
 /
 &NAMCOM
 /
 &NAMCOMPO
 /
 &NAMCOSJO
   LTC=.FALSE.,
   NOTVAR(1,1)=0,0,-1,-1,0,0,0,0,-1,-1,0,-1,-1,-1,-1,-1,-1,-1,-1,-1,-1,-1,-1,-1,-1,
   NOTVAR(1,2)=0,0,-1,-1,-1,-1,0,-1,-1,-1,-1,-1,-1,-1,-1,-1,-1,-1,-1,-1,-1,-1,-1,-1,-1,
   NOTVAR(1,3)=0,0,-1,-1,-1,-1,-1,-1,-1,-1,-1,-1,-1,-1,-1,-1,-1,-1,-1,-1,-1,-1,-1,-1,-1,
   NOTVAR(1,4)=0,0,-1,-1,-1,-1,-1,0,-1,-1,-1,-1,-1,-1,-1,-1,-1,-1,-1,-1,-1,-1,-1,-1,-1,
   NOTVAR(1,5)=0,0,-1,-1,-1,-1,0,-1,-1,-1,-1,-1,-1,-1,-1,-1,-1,-1,0,-1,-1,-1,-1,-1,-1,
   NOTVAR(1,6)=0,0,-1,-1,-1,-1,-1,-1,-1,-1,-1,-1,-1,-1,-1,-1,-1,-1,-1,-1,-1,-1,-1,-1,-1,
   NOTVAR(1,7)=-1,-1,-1,-1,-1,-1,-1,-1,-1,-1,-1,-1,0,-1,-1,-1,-1,-1,-1,-1,-1,-1,-1,-1,-1,
   NOTVAR(1,8)=-1,-1,-1,-1,-1,-1,-1,-1,-1,-1,-1,-1,-1,-1,-1,-1,-1,-1,-1,-1,-1,-1,-1,-1,-1,
   NOTVAR(1,9)=0,0,-1,-1,-1,-1,-1,-1,-1,-1,-1,-1,-1,-1,-1,-1,-1,-1,-1,-1,-1,-1,-1,-1,-1,
   NOTVAR(1,10)=-1,-1,-1,-1,-1,-1,-1,-1,-1,-1,-1,-1,-1,-1,-1,-1,-1,-1,-1,-1,-1,-1,-1,-1,-1,
   NOTVAR(1,13)=-1,-1,-1,-1,0,-1,0,0,-1,-1,-1,-1,-1,-1,-1,-1,-1,-1,-1,-1,-1,-1,-1,-1,-1,-1,0,0,0,0,0,0,0,0,0,0,0,0,0,0,0,0,0,0,
 /
 &NAMCOUPLO4
 /
 &NAMCT0
   LFDBOP=.FALSE.,
   LOBS=.TRUE.,
   LSCREEN_OPENMP=.FALSE.,
   LSIMOB=.FALSE.,
   LSPRT=.FALSE.,
   NCNTVAR=2,
   NFPOS=0,
   NFRGDI=10000,
   NFRHIS=10000,
   NFRPOS=10000,
   NFRSDI=10000,
   NGDITS(0)=1,
   NGDITS(1)=1,
   NHISTS(0)=1,
   NHISTS(1)=1,
   NPOSTS(0)=1,
   NPOSTS(1)=0,
   NSDITS(0)=0,
   NSDITS(1)=0,
   NSPPR=1,
 /
 &NAMCT1
   LRFILAF=.FALSE.,
 /
 &NAMCUMF
 /
 &NAMCUMFS
 /
 &NAMCVER
 /
 &NAMCVMNH
 /
 &NAMDDH
 /
 &NAMDFI
 /
 &NAMDIM
   NPROMA=-16,
 /
 &NAMDIMO
 /
 &NAMDIM_TRAJ
 /
 &NAMDPHY
 /
 &NAMDPRECIPS
 /
 &NAMDVISI
 /
 &NAMDYN
 /
 &NAMDYNA
 /
 &NAMDYNCORE
 /
 &NAMEMIS_CONF
   LUSE_TELSEM=.FALSE.,
 /
 &NAMENKF
 /
 &NAMENSCOV
 /
 &NAMFA
 /
 &NAMFAINIT
 /
 &NAMFPC
 /
 &NAMFPD
 /
 &NAMFPDY2
 /
 &NAMFPDYF
 /
 &NAMFPDYH
 /
 &NAMFPDYI
 /
 &NAMFPDYP
 /
 &NAMFPDYS
 /
 &NAMFPDYT
 /
 &NAMFPDYV
 /
 &NAMFPF
 /
 &NAMFPG
 /
 &NAMFPIOS
 /
 &NAMFPMOVE
 /
 &NAMFPOBJ
 /
 &NAMFPPHY
 /
 &NAMFPSC2
   NFPROMA=-50,
 /
 &NAMFPSC2_DEP
   NFPROMA_DEP=-50,
 /
 &NAMGEM
 /
 &NAMGFL
   YCPF_NL%LGP=.FALSE.,
   YG_NL%CNAME='GRAUPEL',
   YG_NL%LGP=.FALSE.,
   YG_NL%LSP=.FALSE.,
   YG_NL%NREQIN=0,
   YI_NL%CNAME='ICE_CRYSTAL',
   YI_NL%LGP=.FALSE.,
   YI_NL%LSP=.FALSE.,
   YI_NL%NREQIN=0,
   YL_NL%CNAME='CLOUD_WATER',
   YL_NL%LGP=.FALSE.,
   YL_NL%LSP=.FALSE.,
   YL_NL%NREQIN=0,
   YQ_NL%CNAME='HUMI.SPECIFI',
   YQ_NL%LGP=.TRUE.,
   YQ_NL%LSP=.FALSE.,
   YQ_NL%NREQIN=1,
   YR_NL%CNAME='RAIN',
   YR_NL%LGP=.FALSE.,
   YR_NL%LSP=.FALSE.,
   YR_NL%NREQIN=0,
   YS_NL%CNAME='SNOW',
   YS_NL%LGP=.FALSE.,
   YS_NL%LSP=.FALSE.,
   YS_NL%NREQIN=0,
 /
 &NAMGRIB
 /
 &NAMGWD
 /
 &NAMGWDIAG
 /
 &NAMGWWMS
 /
 &NAMIAU
 /
 &NAMICE
 /
 &NAMINI
 /
 &NAMINTFLEX
 /
 &NAMIOMI
   CFVATRA='VATRH',
   NMUPD=5,
 /
 &NAMIOS
 /
 &NAMIO_SERV
 /
 &NAMJBCODES
 /
 &NAMJG
   CONFIG%ELC=300000.,
   CONFIG%L3DBGERR=.TRUE.,
   CONFIG%LCLMSFCE=.TRUE.,
   CONFIG%LCORCOSU=.FALSE.,
   CONFIG%LJBBALBETA=.FALSE.,
   CONFIG%LJB_NONLINEAR_BALANCE=.FALSE.,
   CONFIG%LJB_NONLINEAR_BALANCE_RELAX=.TRUE.,
   CONFIG%LJB_NONLINEAR_CVHUM=.FALSE.,
   CONFIG%LJB_NONLINEAR_CVO3=.FALSE.,
   CONFIG%LJB_OMEGA_BALANCE=.FALSE.,
   CONFIG%LJB_OMEGA_BALANCE_RELAX=.TRUE.,
   CONFIG%LRDQERR=.FALSE.,
   CONFIG%LREDNMCQ=.FALSE.,
   CONFIG%LSBLATLONG=.FALSE.,
   CONFIG%LSBQ_STRATOLOW=.TRUE.,
   CONFIG%LSPFCE=.TRUE.,
   CONFIG%REDNMC=0.5,
 /
 &NAMLCZ
 /
 &NAMLIMA
 /
 &NAMLSFORC
 /
 &NAMMARS
 /
 &NAMMCC
 /
 &NAMMCUF
 /
 &NAMMETHOX
 /
 &NAMMKODB
 /
 &NAMMODERR
 /
 &NAMMTS
 /
 &NAMMWAVE
   LDMWAVE_FLUX_TO_MMR=.FALSE.,
 /
 &NAMNORGWD
 /
 &NAMNPROF
 /
 &NAMNUD
 /
 &NAMNUDGLH
 /
 &NAMOBS
   LCACHMT=.TRUE.,
   LCAPACH=.FALSE.,
   LMKCMARPL=.FALSE.,
   LSAATOPZTD=.TRUE.,
   L_F_SCR_WORK_TS=.FALSE.,
 /
 &NAMONEDVAR
 /
 &NAMOOPS
 /
 &NAMOPH
 /
 &NAMOPTCMEM
 /
 &NAMPAR0
   LMPOFF=.FALSE.,
   MBX_SIZE=2048000000,
   MP_TYPE=2,
   NOUTPUT=1,
   NPRGPEW=1,
   NPRGPNS='NBPROC',
   NPROC='NBPROC',
   NPRTRV=1,
   NPRTRW='NBPROC',
 /
 &NAMPAR1
   LSPLIT=.FALSE.,
   NCOMBFLEN=1800000,
   NSTRIN='NBPROC',
   NSTROUT=8,
 /
 &NAMPARAR
 /
 &NAMPERTOBS
 /
 &NAMPERTPAR
 /
 &NAMPHMSE
 /
 &NAMPHY
   LAERODES=.TRUE.,
   LAEROLAN=.TRUE.,
   LAEROSEA=.TRUE.,
   LAEROSOO=.TRUE.,
   LBLVAR=.TRUE.,
   LNEBN=.FALSE.,
   LO3ABC=.TRUE.,
   LRAY=.FALSE.,
   LVGSN=.TRUE.,
 /
 &NAMPHY0
   EDK=5.,
   USURIC=0.175,
   USURICE=0.5,
   USURICL=1.,
   USURID=0.1,
 /
 &NAMPHY1
 /
 &NAMPHY2
 /
 &NAMPHY3
 /
 &NAMPHYDS
 /
 &NAMPPC
 /
 &NAMPPVI
 /
 &NAMPRE
 /
 &NAMPSOT
 /
 &NAMRAD15
 /
 &NAMRADCMEM
 /
 &NAMRCF
 /
 &NAMRCOEF
 /
 &NAMRES
 /
 &NAMRGRI
 /
 &NAMRINC
 /
 &NAMRIP
   CSTOP='FCSTOP',
   TSTEP='TIMESTEP',
 /
 &NAMRIP0
 /
 &NAMRLX
 /
 &NAMSATS
   LCO2_DIAG_AIRS=.FALSE.,
   LCO2_DIAG_IASI=.FALSE.,
   LPARTIAL_COEF_FILES=.TRUE.,
   MEMIS_SW=1,
 /
 &NAMSATSIM
 /
 &NAMSCC
 /
 &NAMSCEN
 /
 &NAMSCM
 /
 &NAMSEKF
 /
 &NAMSENS
 /
 &NAMSFXCMP
 /
 &NAMSIMPHL
 /
 &NAMSPNG
 /
 &NAMSPP
 /
 &NAMSPSDT
 /
 &NAMSTA
 /
 &NAMSTOPH
 /
 &NAMSWE
 /
 &NAMTESTVAR
 /
 &NAMTHLIM
 /
 &NAMTOPH
 /
 &NAMTRAJ
   LREADGPTRAJ=.TRUE.,
   LTRAJGP=.TRUE.,
 /
 &NAMTRAJP
 /
 &NAMTRANS
   LFFTW=.TRUE.,
 /
 &NAMTRANS0
 /
 &NAMTS
 /
 &NAMVAR
   LANOBS=.FALSE.,
   LBGOBS=.FALSE.,
   LCLDSINK=.FALSE.,
   LCONGRAD=.TRUE.,
   LINITCV=.TRUE.,
   LJC=.FALSE.,
   LSTATMERR=.FALSE.,
   LTEST=.FALSE.,
   LTOVSCV=.TRUE.,
   LVARBC=.TRUE.,
   L_CHECK_CONVERGENCE=.FALSE.,
   NFRANA=10000,
   NGRATS(0)=1,
   NGRATS(1)=1,
   NITER=50,
   NSIMU=60,
   NUPTRA=0,
   RCVGE=0.001,
 /
 &NAMVARBC
   NVERBOSE=0,
 /
 &NAMVARBC_AIREP
   LBC_ACARS=.FALSE.,
   LBC_AIRCT=.FALSE.,
   LBC_AIREP=.FALSE.,
   LBC_AMDAR=.FALSE.,
   LBC_CODAR=.FALSE.,
   LBC_COLBA=.FALSE.,
 /
 &NAMVARBC_ALLSKY
 /
 &NAMVARBC_GBRAD
 /
 &NAMVARBC_MODES
   LBC_MODES=.FALSE.,
 /
 &NAMVARBC_RAD
   LCLD_AIRS=.TRUE.,
   YCONFIG(3,3)%NCSTART=0,
 /
 &NAMVARBC_RSONDE
   LBC_RSONDE=.FALSE.,
 /
 &NAMVARBC_SFCOBS
   LBC_SFCOBS_APD=.TRUE.,
 /
 &NAMVARBC_TCWV
 /
 &NAMVARBC_TO3
 /
 &NAMVAREPS
 /
 &NAMVDF
 /
 &NAMVDOZ
 /
 &NAMVOLCANO
 /
 &NAMVRTL
   L131TL=.TRUE.,
   LOBSTL=.TRUE.,
 /
 &NAMVV0
 /
 &NAMVV1
 /
 &NAMVWRK
 /
 &NAMWAVELETJB
 /
 &NAMXFU
 /
 &NAM_ASSIM
 /
 &NAM_CANAPE
 /
 &NAM_DISTRIBUTED_VECTORS
 /
 &NAM_REPROD_OPER
 /
 &NAPHLC
 /
 &NEMCT0
 /
 &NEMDIM
 /
 &NEMDYN
 /
 &NEMELBC0A
 /
 &NEMELBC0B
 /
 &NEMFPEZO
 /
 &NEMGEO
 /
 &NEMJK
 /
 &NEMVAR
   ENIL1=300000.,
   ENIL2=500000.,
   ENILHBAL1=600000.,
   ENILHBAL2=1000000.,
   EVAREPSILON=0.01,
   EXPVAR=1.,
   LCORCOSU_AUTO=.FALSE.,
   LCORCOSU_HBAL=.FALSE.,
   LCORCOSU_STAT=.FALSE.,
   LEVARGP=.FALSE.,
   NBZONVAR_EW=20,
 /
 &NEMWAVELET
 /
 &RADIATION
 /
