 &NAMDDH
   LHDEFZ=.TRUE.,
   LHDHKS=.TRUE.,
   LHDZON=.TRUE.,
   NDHKD=30,
 /
