 &BUFR
 /
 &GRIB
 /
 &HDF5
 /
 &NADIRS
   LBIASCORR=.FALSE.,
   MODELE='ARPEGE',
 /
 &NAMDYNCORE
 /
 &NAMSATFREQ
 /
 &NAMSCEN
 /
 &NETCDF
 /
