 &NACIETEO
 /
 &NACOBS
 /
 &NACTAN
 /
 &NACTEX
 /
 &NACVEG
 /
 &NADOCK
 /
 &NAEAEM7
 /
 &NAEAER
 /
 &NAECOAPHY
 /
 &NAEPHLI
 /
 &NAEPHY
 /
 &NAERAD
   LRRTM=.TRUE.,
   LSRTM=.FALSE.,
   NAER=1,
   NICEOPT=3,
   NLIQOPT=3,
   NOVLP=6,
   NOZOCL=2,
   NRADFR=18,
   NRADIP=3,
   NRADLP=2,
   NSW=6,
   RLWINHF=1,
   RRE2DE=0.64952,
   RSWINHF=1,
 /
 &NAERCLI
 /
 &NAETLDIAG
 /
 &NAEVOL
 /
 &NAIMPO
 /
 &NALORI
 /
 &NAMACV
 /
 &NAMAERDET
 /
 &NAMAFN
   GFP_CLSG%CLNAME='SURFACCGRAUPEL',
   GFP_CLSP%CLNAME='SURFACCPLUIE',
   GFP_CLSS%CLNAME='SURFACCNEIGE',
   GFP_SFIS%IBITS=16,
   GFP_ST%CLNAME='SURFTEMPERATURE',
   GFP_ST%IANO=0,
   GFP_ST%IBITS=12,
   GFP_X10U%CLNAME='CLSVENT.ZONAL',
   GFP_X10U%IANO=0,
   GFP_X10U%IBITS=12,
   GFP_X10V%CLNAME='CLSVENT.MERIDIEN',
   GFP_X10V%IANO=0,
   GFP_X10V%IBITS=12,
   GFP_X2RH%CLNAME='CLSHUMI.RELATIVE',
   GFP_X2RH%IANO=0,
   GFP_X2RH%IBITS=12,
   GFP_X2T%CLNAME='CLSTEMPERATURE',
   GFP_X2T%IANO=1,
   GFP_XCCC%IBITS=8,
   GFP_XHCC%IBITS=8,
   GFP_XLCC%IBITS=8,
   GFP_XLSG%CLNAME='SURFINSGRAUPEL',
   GFP_XLSP%CLNAME='SURFINSPLUIE',
   GFP_XLSS%CLNAME='SURFINSNEIGE',
   GFP_XMCC%IBITS=8,
   GFP_XN2T%IBITS=12,
   GFP_XTCC%IBITS=8,
   GFP_XUGST%CLNAME='CLSU.RAF.MOD.XFU',
   GFP_XUGST%IANO=0,
   GFP_XUGST%IBITS=12,
   GFP_XVGST%CLNAME='CLSV.RAF.MOD.XFU',
   GFP_XVGST%IANO=0,
   GFP_XVGST%IBITS=12,
   GFP_XX2T%IBITS=12,
   GFP_XXDIAGH%IBITS=12,
   TFP_ABS%ZFK=32.,
   TFP_CLF%IBITS=6,
   TFP_EDR%CLNAME='EDR',
   TFP_EDR%IBITS=16,
   TFP_EDR%IGRIB=136,
   TFP_GR%IBITS=12,
   TFP_HL%IBITS=12,
   TFP_HTB%IBITS=16,
   TFP_HTB%LLGP=.TRUE.,
   TFP_HU%IBITS=12,
   TFP_MSAT9C2%IBITS=12,
   TFP_MSAT9C6%IBITS=12,
   TFP_MSLNH%IBITS=12,
   TFP_PV%ZFK=64.,
   TFP_RCLS%IBITS=12,
   TFP_RR%IBITS=12,
   TFP_SN%IBITS=12,
   TFP_T%IBITS=12,
   TFP_TCLS%IBITS=12,
   TFP_TH%IBITS=12,
   TFP_THPW%IBITS=12,
   TFP_THV%IBITS=12,
   TFP_TN%IBITS=12,
   TFP_TWV%IBITS=12,
   TFP_TX%IBITS=12,
   TFP_U%IBITS=12,
   TFP_V%IBITS=12,
   TFP_VOR%ZFK=32.,
   TFP_VV%ZFK=32.,
 /
 &NAMARG
   CNMEXP='CEXP',
   LSLAG=.TRUE.,
   NCONF=2,
   NSUPERSEDE=1,
 /
 &NAMARPHY
   LKFBCONV=.FALSE.,
   LKFBD=.FALSE.,
   LKFBS=.FALSE.,
   LMFSHAL=.TRUE.,
   LMICRO=.TRUE.,
   LMPA=.TRUE.,
   LMSE=.TRUE.,
   LTURB=.TRUE.,
 /
 &NAMCA
 /
 &NAMCAPE
 /
 &NAMCFU
 /
 &NAMCHEM
 /
 &NAMCHET
 /
 &NAMCHK
 /
 &NAMCLA
 /
 &NAMCLDP
 /
 &NAMCLI
 /
 &NAMCLOP15
 /
 &NAMCLTC
 /
 &NAMCMEM_MW
 /
 &NAMCOK
 /
 &NAMCOM
 /
 &NAMCOMPO
 /
 &NAMCOSJO
   LTC=.FALSE.,
   RBGQC(27,1,1)=2.25,
   RBGQC(27,1,2)=4.,
   RBGQC(27,1,3)=6.25,
   SIGMAO_COEF(7)=1.15,
 /
 &NAMCOUPLO4
 /
 &NAMCT0
   CFPNCF='ECHFP',
   CNPPATH='.',
   CSCRIPT_LAMRTC='./atcp.alad',
   LAROME=.TRUE.,
   LNHEE=.TRUE.,
   LOBS=.TRUE.,
   LOBSC1=.TRUE.,
   LSCREEN=.TRUE.,
   LSCREEN_OPENMP=.FALSE.,
   LSIMOB=.FALSE.,
   LSPRT=.TRUE.,
   NCNTVAR=2,
   NFPOS=0,
   NFRGDI=10000,
   NFRHIS=10000,
   NFRPOS=10000,
   NFRSDI=10000,
   NGDITS(0)=1,
   NGDITS(1)=1,
   NHISTS(0)=1,
   NHISTS(1)=1,
   NPOSTS(0)=1,
   NPOSTS(1)=1,
   NSDITS(0)=0,
   NSDITS(1)=0,
   NSFXHISTS(0)=1,
   NSFXHISTS(1)=1,
 /
 &NAMCT1
   LRFILAF=.FALSE.,
   N1HIS=1,
   N1POS=1,
   N1RES=0,
   N1SDI=1,
   N1SFXHIS=1,
 /
 &NAMCUMF
 /
 &NAMCUMFS
 /
 &NAMCVER
 /
 &NAMCVMNH
 /
 &NAMDDH
 /
 &NAMDFI
 /
 &NAMDIM
   NPROMA=-16,
 /
 &NAMDIMO
 /
 &NAMDIM_TRAJ
 /
 &NAMDPHY
 /
 &NAMDPRECIPS
 /
 &NAMDVISI
 /
 &NAMDYN
   LADVF=.TRUE.,
   LQMPD=.FALSE.,
   LQMT=.FALSE.,
   LQMVD=.FALSE.,
   LRHDI_LASTITERPC=.TRUE.,
   NITMP=4,
   NSITER=1,
   NSPDLAG=3,
   NSVDLAG=3,
   NTLAG=3,
   NVLAG=3,
   NWLAG=3,
   RDAMPDIV=20.,
   RDAMPPD=20.,
   RDAMPQ=0.,
   RDAMPT=0.,
   RDAMPVD=20.,
   RDAMPVOR=20.,
   REPS1=0.,
   REPS2=0.,
   REPSM1=0.,
   REPSM2=0.,
   REPSP1=0.,
   SDRED=1.,
   SIPR=90000.,
   SITR=350.,
   SITRA=100.,
   SLHDA0=0.25,
   SLHDD00=0.000065,
   VESL=0.05,
   VMAX2=600,
   XIDT=0.,
   ZSLHDP1=1.7,
   ZSLHDP3=0.6,
 /
 &NAMDYNA
   LCOMADH=.TRUE.,
   LCOMADV=.FALSE.,
   LCOMAD_GFL=.TRUE.,
   LCOMAD_SP=.TRUE.,
   LCOMAD_SPD=.TRUE.,
   LCOMAD_SVD=.TRUE.,
   LCOMAD_T=.TRUE.,
   LCOMAD_W=.TRUE.,
   LGWADV=.TRUE.,
   LNESC=.TRUE.,
   LPC_CHEAP=.TRUE.,
   LPC_FULL=.TRUE.,
   LRDBBC=.FALSE.,
   LSETTLS=.FALSE.,
   LSETTLST=.TRUE.,
   LSLHD_GFL=.TRUE.,
   LSLHD_OLD=.FALSE.,
   LSLHD_SPD=.FALSE.,
   LSLHD_SVD=.FALSE.,
   LSLHD_T=.FALSE.,
   LSLHD_W=.FALSE.,
   ND4SYS=2,
   SLHDEPSH=0.08,
   SLHDKMAX=6,
 /
 &NAMDYNCORE
 /
 &NAMEMIS_CONF
   LATLAS_EMIS(16)=.TRUE.,
   LATLAS_GMI=.FALSE.,
   LATLAS_MWHS2=.FALSE.,
   LATLAS_SAPHIR=.TRUE.,
   LDYN_AMSU=.TRUE.,
   LDYN_ATMS=.TRUE.,
   LDYN_EMIS(16)=.FALSE.,
   LDYN_GMI=.TRUE.,
   LDYN_MWHS2=.TRUE.,
   LDYN_SSMIS=.TRUE.,
   LDYN_TSKIN(16)=.TRUE.,
   LICE_AMSU=.TRUE.,
   LICE_ATMS=.TRUE.,
   LICE_SSMIS=.TRUE.,
   LSKIN_SEV=.TRUE.,
   LUSE_DYN_TSKIN(16)=.TRUE.,
   LUSE_DYN_TSKIN(29)=.TRUE.,
   LUSE_TELSEM=.FALSE.,
   MTSKIN_CHAN(16)=1194,
 /
 &NAMENKF
 /
 &NAMENSCOV
 /
 &NAMFA
 /
 &NAMFAINIT
 /
 &NAMFPC
 /
 &NAMFPD
 /
 &NAMFPDY2
 /
 &NAMFPDYF
 /
 &NAMFPDYH
 /
 &NAMFPDYI
 /
 &NAMFPDYP
 /
 &NAMFPDYS
 /
 &NAMFPDYT
 /
 &NAMFPDYV
 /
 &NAMFPF
 /
 &NAMFPG
 /
 &NAMFPIOS
 /
 &NAMFPMOVE
 /
 &NAMFPOBJ
 /
 &NAMFPPHY
 /
 &NAMFPSC2
   NFPROMA=-50,
 /
 &NAMFPSC2_DEP
   NFPROMA_DEP=-50,
 /
 &NAMGEM
 /
 &NAMGFL
   NGFL_EZDIAG=3,
   YEZDIAG_NL(1)%CNAME='EZDIAG01',
   YEZDIAG_NL(1)%LREQOUT=.FALSE.,
   YEZDIAG_NL(2)%CNAME='EZDIAG02',
   YEZDIAG_NL(2)%LREQOUT=.FALSE.,
   YEZDIAG_NL(3)%CNAME='EZDIAG03',
   YEZDIAG_NL(3)%LREQOUT=.FALSE.,
   YG_NL%LQM=.TRUE.,
   YG_NL%LSLHD=.TRUE.,
   YG_NL%NCOUPLING=-1,
   YG_NL%NREQIN=1,
   YG_NL%REFVALC=0.,
   YIRAD_NL%LGP=.TRUE.,
   YI_NL%LQM=.TRUE.,
   YI_NL%LSLHD=.TRUE.,
   YI_NL%NCOUPLING=-1,
   YI_NL%NREQIN=1,
   YI_NL%REFVALC=0.,
   YLRAD_NL%LGP=.TRUE.,
   YL_NL%LQM=.TRUE.,
   YL_NL%LSLHD=.TRUE.,
   YL_NL%NCOUPLING=-1,
   YL_NL%NREQIN=1,
   YL_NL%REFVALC=0.,
   YQ_NL%LCOMAD=.TRUE.,
   YQ_NL%LQM=.TRUE.,
   YQ_NL%LSLHD=.FALSE.,
   YQ_NL%NREQIN=1,
   YR_NL%LQM=.TRUE.,
   YR_NL%LSLHD=.TRUE.,
   YR_NL%NCOUPLING=-1,
   YR_NL%NREQIN=1,
   YR_NL%REFVALC=0.,
   YS_NL%LQM=.TRUE.,
   YS_NL%LSLHD=.TRUE.,
   YS_NL%NCOUPLING=-1,
   YS_NL%NREQIN=1,
   YS_NL%REFVALC=0.,
   YTKE_NL%NCOUPLING=0,
   YTKE_NL%NREQIN=1,
 /
 &NAMGRIB
 /
 &NAMGWD
 /
 &NAMGWDIAG
 /
 &NAMGWWMS
 /
 &NAMIAU
 /
 &NAMICE
 /
 &NAMINI
 /
 &NAMINTFLEX
 /
 &NAMIOMI
 /
 &NAMIOS
 /
 &NAMIO_SERV
 /
 &NAMJBCODES
 /
 &NAMJG
   CONFIG%REDNMC=1.,
 /
 &NAMLCZ
 /
 &NAMLIMA
 /
 &NAMLSFORC
 /
 &NAMMARS
 /
 &NAMMCC
 /
 &NAMMCUF
 /
 &NAMMETHOX
 /
 &NAMMKODB
   LBIASCV=.TRUE.,
   LHBIASC=.FALSE.,
   LSCATINT=.TRUE.,
   LTBIASBUFR=.TRUE.,
   LTBIASC=.FALSE.,
   L_NEW_RH_BIAS=.TRUE.,
   L_NEW_T_BIAS=.TRUE.,
   L_SCAT_BIASSIG=.FALSE.,
   NBIASCOR=0,
 /
 &NAMMODERR
 /
 &NAMMTS
 /
 &NAMMWAVE
 /
 &NAMNORGWD
 /
 &NAMNPROF
   NOBSPROFS(13)=225,
 /
 &NAMNUD
 /
 &NAMNUDGLH
 /
 &NAMOBS
   LAIREP_DPDT=.FALSE.,
   LCACHMT=.TRUE.,
   LCAPACH=.TRUE.,
   LMKCMARPL(2,9)=.TRUE.,
   LRSTBIAS_ODB=.TRUE.,
   LSAATOPZTD=.TRUE.,
   LSLRW10=.FALSE.,
   L_F_SCR_WORK_TS=.FALSE.,
   NSCATT_THIN=1,
 /
 &NAMONEDVAR
 /
 &NAMOOPS
 /
 &NAMOPH
   CFNHWF='ECHIS',
   NTIMEFMT=1,
 /
 &NAMOPTCMEM
 /
 &NAMPAR0
   MP_TYPE=2,
   NOUTPUT=1,
   NPRGPEW=1,
   NPRGPNS='NBPROC',
   NPROC='NBPROC',
   NPRTRV=1,
   NPRTRW='NBPROC',
 /
 &NAMPAR1
   LEQ_REGIONS=.FALSE.,
   LSLONDEM=.TRUE.,
   LSPLIT=.TRUE.,
   LSYNC_SLCOM=.FALSE.,
   LSYNC_TRANS=.FALSE.,
   L_GATHERV_WRGP=.FALSE.,
   NCOMBFLEN=1800000,
   NDISTIO(12)=1,
   NSTRIN=100,
   NSTROUT='NBPROC',
 /
 &NAMPARAR
   CFRAC_ICE_ADJUST='S',
   CFRAC_ICE_SHALLOW_MF='S',
   CMICRO='ICE3',
   CSEDIM='STAT',
   CSNOWRIMING='M90',
   LCONVHG=.TRUE.,
   LCRFLIMIT=.TRUE.,
   LCRIAUTI=.TRUE.,
   LEVLIMIT=.TRUE.,
   LFEEDBACKT=.TRUE.,
   LFPREC3D=.FALSE.,
   LNULLWETG=.TRUE.,
   LNULLWETH=.TRUE.,
   LOLSMC=.TRUE.,
   LOSEDIC=.TRUE.,
   LOSIGMAS=.TRUE.,
   LOSUBG_COND=.TRUE.,
   LSEDIM_AFTER=.FALSE.,
   LWETGPOST=.TRUE.,
   LWETHPOST=.TRUE.,
   NMAXITER_MICRO=1,
   NPRINTFR=10000,
   NPTP=1,
   RCRIAUTC=0.001,
   RCRIAUTI=0.0002,
   RT0CRIAUTI=-5.,
   VSIGQSAT=0.02,
   XFRACM90=0.1,
   XMRSTEP=0.00005,
   XSPLIT_MAXCFL=0.8,
   XTSTEP_TS=0.,
 /
 &NAMPERTOBS
 /
 &NAMPERTPAR
 /
 &NAMPHMSE
   LPGDFWR=.FALSE.,
 /
 &NAMPHY
   LAERODES=.TRUE.,
   LAEROLAN=.TRUE.,
   LAEROSEA=.TRUE.,
   LAEROSOO=.TRUE.,
   LEDR=.TRUE.,
   LMPHYS=.TRUE.,
   LO3ABC=.TRUE.,
   LRAYFM=.TRUE.,
 /
 &NAMPHY0
   ALMAV=300.,
   BEDIFV=0.05,
   ECMNP=3000.,
   GCCSV=0.,
   GCVADS=0.8,
   GCVALFA=0.000045,
   GCVBETA=0.2,
   GCVMLT=0.00016,
   GCVNU=0.000025,
   GCVPSI=1.,
   GCVPSIE=1.,
   GDDEVA=0.25,
   GDDSDE=0.5,
   GWDCD=6.,
   HUCOE=0.5,
   HUTIL=1.8,
   QSSC=400.,
   QSSUSC=0.75,
   QSSUSS=0.4,
   QSSUSV=250.,
   QSUSXC=0.0002,
   QSUSXS=0.0003,
   QXRAL=130.,
   QXRDEL=0.49,
   QXRHX=0.99,
   QXRR=0.25,
   RCVEVAP=0.25,
   REFLKUO=5000.,
   REVGSL=15.,
   SCO=-20.,
   TDDGP=0.8,
   TENTR=0.0000025,
   TENTRX=0.00008,
   TUDGP=0.8,
   UHDIFV=0.0008,
   USURIC=0.175,
   USURICE=0.5,
   USURICL=1.,
   USURID=0.1,
   USURIDE=0.25,
   VZ0CM=0.00015,
   XMAXLM=5000.,
   XMINLM=10.,
 /
 &NAMPHY1
   ALBMIN=0.65,
   ALCRIN=0.75,
   GCGEL=0.00003,
   GCGELS=0.00005,
   GNEIMX=1.8,
   GNEIMXS=1.8,
   RCTVEG(3)=0.000012,
   RCTVEG(4)=0.00001,
 /
 &NAMPHY2
   FACRAF=3.8,
   HTKERAF=20.,
   LMULAF=.TRUE.,
   LRAFTKE=.TRUE.,
   LRAFTUR=.TRUE.,
   XDAMP=1.,
   XMULAF=-1.85,
 /
 &NAMPHY3
 /
 &NAMPHYDS
 /
 &NAMPPC
 /
 &NAMPPVI
 /
 &NAMPRE
 /
 &NAMPSOT
 /
 &NAMRAD15
 /
 &NAMRADCMEM
 /
 &NAMRCF
 /
 &NAMRCOEF
 /
 &NAMRES
 /
 &NAMRGRI
 /
 &NAMRINC
 /
 &NAMRIP
   CSTOP='FCSTOP',
   TSTEP='TIMESTEP',
 /
 &NAMRIP0
 /
 &NAMRLX
 /
 &NAMSATS
   LCO2_DIAG_AIRS=.FALSE.,
   LCO2_DIAG_IASI=.FALSE.,
   LPARTIAL_COEF_FILES=.TRUE.,
   MEMIS_SW=1,
 /
 &NAMSATSIM
 /
 &NAMSCC
   LOSCAT_OUTERSWATH_REJ=.FALSE.,
   LRSCAT_OUTERSWATH_REJ=.FALSE.,
   LSCDPR=.FALSE.,
   LSCRE4D=.TRUE.,
   NSCAWSOLMAX(2)=2,
   NSCAWSOLMAX(3)=4,
   RFIND_AIREP=25000.,
   RFIND_RAD1C(0)=139000.,
   RFIND_RAD1C(1)=278000.,
   RFIND_RAD1C(2)=278000.,
   RFIND_RAD1C(3)=80000.,
   RFIND_RAD1C(4)=139000.,
   RFIND_RAD1C(6)=139000.,
   RFIND_RAD1C(10)=139000.,
   RFIND_RAD1C(11)=139000.,
   RFIND_RAD1C(15)=139000.,
   RFIND_RAD1C(16)=80000.,
   RFIND_RAD1C(19)=139000.,
   RFIND_RAD1C(20)=139000.,
   RFIND_RAD1C(27)=139000.,
   RFIND_RAD1C(73)=139000.,
   RMIND_RAD1C(0)=69500.,
   RMIND_RAD1C(1)=139000.,
   RMIND_RAD1C(2)=139000.,
   RMIND_RAD1C(3)=40000.,
   RMIND_RAD1C(4)=69500.,
   RMIND_RAD1C(6)=69500.,
   RMIND_RAD1C(10)=69500.,
   RMIND_RAD1C(11)=69500.,
   RMIND_RAD1C(15)=69500.,
   RMIND_RAD1C(16)=40000.,
   RMIND_RAD1C(19)=69500.,
   RMIND_RAD1C(20)=69500.,
   RMIND_RAD1C(27)=69500.,
   RMIND_RAD1C(73)=69500.,
 /
 &NAMSCEN
 /
 &NAMSCM
 /
 &NAMSEKF
 /
 &NAMSENS
 /
 &NAMSFXCMP
 /
 &NAMSIMPHL
 /
 &NAMSPNG
 /
 &NAMSPP
 /
 &NAMSPSDT
 /
 &NAMSTA
 /
 &NAMSTOPH
 /
 &NAMSWE
 /
 &NAMTESTVAR
 /
 &NAMTHLIM
   RSCAWLO=35.,
 /
 &NAMTOPH
 /
 &NAMTRAJ
 /
 &NAMTRAJP
 /
 &NAMTRANS
 /
 &NAMTRANS0
 /
 &NAMTS
 /
 &NAMVAR
   LCLDSINK=.FALSE.,
   LTOVSCV=.TRUE.,
   LVARBC=.TRUE.,
   L_CHECK_CONVERGENCE=.FALSE.,
   NFRANA=10000,
   NGRATS(0)=1,
   NGRATS(1)=1,
   NITER=1,
   NSIMU=1,
   NUPTRA=-1,
   RCVGE=0.001,
 /
 &NAMVARBC
 /
 &NAMVARBC_AIREP
   LBC_ACARS=.FALSE.,
   LBC_AIRCT=.FALSE.,
   LBC_AIREP=.FALSE.,
   LBC_AMDAR=.FALSE.,
   LBC_CODAR=.FALSE.,
   LBC_COLBA=.FALSE.,
 /
 &NAMVARBC_ALLSKY
 /
 &NAMVARBC_GBRAD
 /
 &NAMVARBC_MODES
 /
 &NAMVARBC_RAD
   YCONFIG(3,3)%NCSTART=0,
 /
 &NAMVARBC_RSONDE
   LBC_RSONDE=.FALSE.,
 /
 &NAMVARBC_SFCOBS
   LBC_SFCOBS_APD=.TRUE.,
 /
 &NAMVARBC_TCWV
 /
 &NAMVARBC_TO3
 /
 &NAMVAREPS
 /
 &NAMVDF
 /
 &NAMVDOZ
 /
 &NAMVOLCANO
 /
 &NAMVRTL
 /
 &NAMVV0
 /
 &NAMVV1
 /
 &NAMVWRK
 /
 &NAMWAVELETJB
 /
 &NAMXFU
 /
 &NAM_ASSIM
 /
 &NAM_CANAPE
 /
 &NAM_DISTRIBUTED_VECTORS
 /
 &NAM_REPROD_OPER
 /
 &NAPHLC
 /
 &NEMCT0
 /
 &NEMDIM
 /
 &NEMDYN
 /
 &NEMELBC0A
   LESPCPL=.TRUE.,
   NBICNHX=2,
   NBICPD=2,
   NBICVD=2,
 /
 &NEMELBC0B
   NEFRSPCPL=1,
   NEK0=20,
   NEK1=30,
   NEN1=4,
   NEN2=8,
   SPNUDDIV=0.01,
   SPNUDQ=0.,
   SPNUDT=0.01,
   SPNUDVOR=0.01,
   TEFRCL=5400.,
 /
 &NEMFPEZO
 /
 &NEMGEO
 /
 &NEMJK
 /
 &NEMVAR
   ENIL1=300000.,
   ENIL2=500000.,
   ENILHBAL1=600000.,
   ENILHBAL2=1000000.,
   EVAREPSILON=0.01,
   EXPVAR=1.,
   LCORCOSU_AUTO=.FALSE.,
   LCORCOSU_HBAL=.FALSE.,
   LCORCOSU_STAT=.FALSE.,
   LEVARGP=.FALSE.,
   NBZONVAR_EW=20,
 /
 &NEMWAVELET
 /
 &RADIATION
 /
