 &NACIETEO
 /
 &NACOBS
 /
 &NACTAN
 /
 &NACTEX
 /
 &NACVEG
 /
 &NADOCK
 /
 &NAEAEM7
 /
 &NAEAER
 /
 &NAECOAPHY
 /
 &NAEPHLI
 /
 &NAEPHY
 /
 &NAERAD
   LHGHG=.TRUE.,
   LRRTM=.TRUE.,
   LSRTM=.TRUE.,
   LUSEPRE2017RAD=.FALSE.,
   NHINCSOL=0,
   NMCICA=1,
   NOVLP=1,
   NRADFR=-3,
   NRADIP=2,
   NRADLP=2,
   NSW=6,
   RLWINHF=0.9,
   STBKG=0.045,
   TRBKG=0.03,
 /
 &NAERCLI
 /
 &NAETLDIAG
 /
 &NAEVOL
 /
 &NAIMPO
 /
 &NALORI
 /
 &NAMACV
 /
 &NAMAERDET
 /
 &NAMAFN
 /
 &NAMARG
 /
 &NAMARPHY
 /
 &NAMCA
 /
 &NAMCAPE
 /
 &NAMCFU
 /
 &NAMCHEM
 /
 &NAMCHET
 /
 &NAMCHK
 /
 &NAMCLA
 /
 &NAMCLDP
 /
 &NAMCLI
 /
 &NAMCLOP15
 /
 &NAMCLTC
 /
 &NAMCMEM_MW
 /
 &NAMCOK
 /
 &NAMCOM
 /
 &NAMCOMPO
 /
 &NAMCOSJO
 /
 &NAMCOUPLO4
 /
 &NAMCT0
 /
 &NAMCT1
 /
 &NAMCUMF
   DETRPEN=0.0001,
   RCAPQADV=0.,
   RDXMAX=1.5,
   RDXMIN=1.,
   RMFDEPS=0.1,
   RPRCON=0.0025,
 /
 &NAMCUMFS
 /
 &NAMCVER
 /
 &NAMCVMNH
   LSMOOTH=.FALSE.,
   OTADJS=10800.,
   XATPERT=500.,
   XAW=1.,
   XBTPERT=0.5,
   XBW=0.5,
   XCDEPTH=1.,
   XCDEPTH_D=4000.,
   XDTPERT=0.3,
   XENTR=0.01,
 /
 &NAMDDH
 /
 &NAMDFI
 /
 &NAMDIM
   NPROMA=-16,
 /
 &NAMDIMO
 /
 &NAMDIM_TRAJ
 /
 &NAMDPHY
 /
 &NAMDPRECIPS
 /
 &NAMDVISI
 /
 &NAMDYN
 /
 &NAMDYNA
 /
 &NAMDYNCORE
 /
 &NAMEMIS_CONF
 /
 &NAMENKF
 /
 &NAMENSCOV
 /
 &NAMFA
   NBITCS=30,
   NBITPG=30,
 /
 &NAMFAINIT
 /
 &NAMFPC
 /
 &NAMFPD
 /
 &NAMFPDY2
 /
 &NAMFPDYF
 /
 &NAMFPDYH
 /
 &NAMFPDYI
 /
 &NAMFPDYP
 /
 &NAMFPDYS
 /
 &NAMFPDYT
 /
 &NAMFPDYV
 /
 &NAMFPF
 /
 &NAMFPG
 /
 &NAMFPIOS
 /
 &NAMFPMOVE
 /
 &NAMFPOBJ
 /
 &NAMFPPHY
 /
 &NAMFPSC2
 /
 &NAMFPSC2_DEP
 /
 &NAMGEM
 /
 &NAMGFL
   YQ_NL%LVWENO=.TRUE.,
 /
 &NAMGRIB
 /
 &NAMGWD
 /
 &NAMGWDIAG
 /
 &NAMGWWMS
 /
 &NAMIAU
 /
 &NAMICE
 /
 &NAMINI
 /
 &NAMINTFLEX
 /
 &NAMIOMI
 /
 &NAMIOS
 /
 &NAMIO_SERV
 /
 &NAMJBCODES
 /
 &NAMJG
 /
 &NAMLCZ
 /
 &NAMLIMA
 /
 &NAMLSFORC
 /
 &NAMMARS
 /
 &NAMMCC
 /
 &NAMMCUF
 /
 &NAMMETHOX
 /
 &NAMMKODB
 /
 &NAMMODERR
 /
 &NAMMTS
 /
 &NAMMWAVE
 /
 &NAMNORGWD
 /
 &NAMNPROF
 /
 &NAMNUD
 /
 &NAMNUDGLH
 /
 &NAMOBS
 /
 &NAMONEDVAR
 /
 &NAMOOPS
 /
 &NAMOPH
 /
 &NAMOPTCMEM
 /
 &NAMPAR0
 /
 &NAMPAR1
 /
 &NAMPARAR
 /
 &NAMPERTOBS
 /
 &NAMPERTPAR
 /
 &NAMPHMSE
 /
 &NAMPHY
   CGMIXLEN='AY',
   LADJCLD=.TRUE.,
   LAERODES=.TRUE.,
   LAEROLAN=.TRUE.,
   LAEROSEA=.TRUE.,
   LAEROSOO=.TRUE.,
   LCONDWT=.TRUE.,
   LCVPPKF=.TRUE.,
   LCVRA=.FALSE.,
   LCVTDK=.TRUE.,
   LDIFCONS=.TRUE.,
   LECDEEP=.FALSE.,
   LECSHAL=.TRUE.,
   LECT=.TRUE.,
   LECTFL=.TRUE.,
   LECTFL0=.TRUE.,
   LECTPRODCVP=.TRUE.,
   LEDMFI=.FALSE.,
   LFLUSO=.TRUE.,
   LFPCOR=.TRUE.,
   LGLACIERS=.TRUE.,
   LGPCMT=.FALSE.,
   LNCVPGY=.FALSE.,
   LNEBECT=.FALSE.,
   LNEWD=.TRUE.,
   LNOIAS=.TRUE.,
   LO3ABC=.TRUE.,
   LO3FL=.TRUE.,
   LPROCLD=.TRUE.,
   LRAY=.FALSE.,
   LRAYFM=.TRUE.,
   LRAYLU=.TRUE.,
   LRNUMX=.TRUE.,
   LSMITH_CDEV=.TRUE.,
   LSSD=.TRUE.,
   LSTRA=.FALSE.,
   LVGSN=.TRUE.,
   LZ0HSREL=.TRUE.,
   NCALLRAD=2,
   NSOLE=1,
 /
 &NAMPHY0
   AECLS4=3.,
   ALMAVE=0.,
   ALMAVX=1000.,
   ECTMAX=35.,
   EDD=1.,
   EDK=1.,
   GCVHMIN=30000.,
   GCVNU=0.00005,
   GCVOMCA=-1.918,
   GCVOMCC=1.35,
   GCVOMDPS=2000.,
   GCVOMGE=1.,
   GCVOMGQ=0.,
   GCVOMGS=1.,
   GCVOMGSX=0.5,
   GCVPSI=1.,
   GCVPSIE=1.,
   GCVRHMAX=1.,
   GCVRHMIN=0.5,
   GDDEVA=0.2,
   GWDCD=5.4,
   GWDSE=0.005,
   GWDVALI=0.5,
   QSNEBC=-1.,
   QSSUSC=5.,
   RCVEVAP=0.25,
   REFLKUO=5000.,
   REVASX=2.0D-7,
   RFACNSM=1.2,
   RFLCHCE=0.25,
   RHCRIT2=0.95,
   RICRLM=0.5,
   RKFBTAU=7200.,
   RPRTH=1.,
   RQCRNS=0.,
   RQICRSN=1.,
   RQICRT2=0.,
   RQICVMIN=0.00001,
   RQLCR=0.0005,
   SXNBCO=1.,
   TDDGP=0.6,
   TFVI=0.08,
   TFVL=0.02,
   TFVLD=0.02,
   TFVS=1.5,
   TUDGP=0.6,
   USURIC=0.175,
   USURICL=1.,
   USURID=0.1,
   VZ0CM=0.0001,
   XBLM=8.5,
   XMAXLM=5000.,
   XMINLM=10.,
 /
 &NAMPHY1
   ALBMIN=0.65,
   ALCRIN=0.81,
   ALRCN1=0.01,
   EMMGLA=0.98,
   EMMMER=0.99,
 /
 &NAMPHY2
   FACRAF=4.,
   XMULAF=0.,
 /
 &NAMPHY3
 /
 &NAMPHYDS
 /
 &NAMPPC
 /
 &NAMPPVI
 /
 &NAMPRE
 /
 &NAMPSOT
 /
 &NAMRAD15
 /
 &NAMRADCMEM
 /
 &NAMRCF
 /
 &NAMRCOEF
   LGLOBRAD=.FALSE.,
   LRCOEF=.FALSE.,
   LTLADDIA=.FALSE.,
 /
 &NAMRES
 /
 &NAMRGRI
 /
 &NAMRINC
 /
 &NAMRIP
 /
 &NAMRIP0
 /
 &NAMRLX
 /
 &NAMSATS
 /
 &NAMSATSIM
 /
 &NAMSCC
 /
 &NAMSCEN
 /
 &NAMSCM
 /
 &NAMSEKF
 /
 &NAMSENS
 /
 &NAMSFXCMP
 /
 &NAMSIMPHL
   LCLOUDS=.TRUE.,
   LCVRASP=.TRUE.,
   LGWDSP=.TRUE.,
   LRAYSP=.TRUE.,
   LRRMESSP=.TRUE.,
   LSIMPH=.FALSE.,
   LSMOOTHA=.TRUE.,
   LSMOOTHB=.TRUE.,
   LSMOOTHD=.TRUE.,
   LSTRASP=.TRUE.,
   LTRAJPS=.FALSE.,
   LTRAJPST=.TRUE.,
   LVDIFSP=.TRUE.,
 /
 &NAMSPNG
 /
 &NAMSPP
 /
 &NAMSPSDT
 /
 &NAMSTA
 /
 &NAMSTOPH
 /
 &NAMSWE
 /
 &NAMTESTVAR
 /
 &NAMTHLIM
 /
 &NAMTOPH
   ETCVIM=5000.,
   ETNEBU=5000.,
   ETPLUI=5000.,
   XDRMTK=6.0D-8,
   XDRMTP=800.,
   XDRMUK=3.0D-7,
   XDRMUP=800.,
 /
 &NAMTRAJ
 /
 &NAMTRAJP
 /
 &NAMTRANS
 /
 &NAMTRANS0
 /
 &NAMTS
 /
 &NAMVAR
 /
 &NAMVARBC
 /
 &NAMVARBC_AIREP
 /
 &NAMVARBC_ALLSKY
 /
 &NAMVARBC_GBRAD
 /
 &NAMVARBC_MODES
 /
 &NAMVARBC_RAD
 /
 &NAMVARBC_RSONDE
 /
 &NAMVARBC_SFCOBS
 /
 &NAMVARBC_TCWV
 /
 &NAMVARBC_TO3
 /
 &NAMVAREPS
 /
 &NAMVDF
 /
 &NAMVDOZ
 /
 &NAMVOLCANO
 /
 &NAMVRTL
 /
 &NAMVV0
 /
 &NAMVV1
 /
 &NAMVWRK
 /
 &NAMWAVELETJB
 /
 &NAMXFU
 /
 &NAM_ASSIM
 /
 &NAM_CANAPE
 /
 &NAM_DISTRIBUTED_VECTORS
 /
 &NAM_REPROD_OPER
 /
 &NAPHLC
   LKEXP=.TRUE.,
   LSDRLC=.TRUE.,
   LSPHLC=.TRUE.,
   LVDFLC=.TRUE.,
   LZMCON=.TRUE.,
 /
 &NEMCT0
 /
 &NEMDIM
 /
 &NEMDYN
 /
 &NEMELBC0A
 /
 &NEMELBC0B
 /
 &NEMFPEZO
 /
 &NEMGEO
 /
 &NEMJK
 /
 &NEMVAR
 /
 &NEMWAVELET
 /
 &RADIATION
   CLOUD_FRACTION_THRESHOLD=0.000001,
   CLOUD_INHOM_DECORR_SCALING=0.5,
   CLOUD_MIXING_RATIO_THRESHOLD=1.00D-9,
   DIRECTORY_NAME='.',
   DO_CLEAR=.TRUE.,
   DO_FU_LW_ICE_OPTICS_BUG=.FALSE.,
   DO_LW_AEROSOL_SCATTERING=.FALSE.,
   DO_LW_CLOUD_SCATTERING=.FALSE.,
   DO_LW_DERIVATIVES=.TRUE.,
   DO_SAVE_GPOINT_FLUX=.FALSE.,
   DO_SAVE_RADIATIVE_PROPERTIES=.FALSE.,
   DO_SAVE_SPECTRAL_FLUX=.FALSE.,
   DO_SURFACE_SW_SPECTRAL_FLUX=.TRUE.,
   DO_SW_DELTA_SCALING_WITH_GASES=.TRUE.,
   GAS_MODEL_NAME='RRTMG-IFS',
   ICE_MODEL_NAME='Fu-IFS',
   IVERBOSE=1,
   IVERBOSESETUP=3,
   LIQUID_MODEL_NAME='Slingo',
   LW_SOLVER_NAME='McICA',
   OVERLAP_SCHEME_NAME='Exp-Exp',
   SW_SOLVER_NAME='McICA',
   USE_AEROSOLS=.TRUE.,
   USE_BETA_OVERLAP=.FALSE.,
 /
