 &NAMICE
   NDAYDAT='IDAT',
   NTYPDATA=2,
 /
