 &NAM_ASSIM
   LAESNM=.TRUE.,
   LAROME=.TRUE.,
 /
 &NAM_NACVEG
   LOBS2M=.TRUE.,
   LOBSWG=.FALSE.,
   NECHGU=3,
   NECHGXFU=1,
   XRCLIMCA=0.,
   XSIGH2MO=0.1,
   XSIGT2MO=1.,
 /
