 &NAM_PREP_ISBA
   LISBA_CANOPY=.FALSE.,
 /
 &NAM_PREP_SEAFLUX
   CFILE_SEAFLX='OCEANFILE.nc',
   CTYPE_SEAFLX='NETCDF',
   LOCEAN_CURRENT=.TRUE.,
   LOCEAN_MERCATOR=.TRUE.,
   LSEA_SBL=.FALSE.,
 /
 &NAM_PREP_WATFLUX
   LWAT_SBL=.FALSE.,
 /
 &NAM_SURF_ATM
   LVERTSHIFT=.TRUE.,
 /
 &NAM_WRITE_SURF_ATM
   LNOWRITE_TEXFILE=.TRUE.,
 /
