 &NAMPHMSE
   LPGDFWR=.FALSE.,
 /
 &NAMSFXCMP
   CFLDNAME(1)='????????????????',
   NBBITS(1)=24,
   NVGRIBSFX=123,
 /
