 &NAMPHMSE
   LHISFWR=.TRUE.,
   LPGDFWR=.FALSE.,
 /
