 &NAM_ASSIM
   LAESNM=.TRUE.,
   LAROME=.FALSE.,
 /
 &NAM_NACVEG
   LOBS2M=.TRUE.,
   LOBSWG=.FALSE.,
   NECHGU=6,
   XRCLIMCA=0.,
   XSIGH2MO=0.1,
   XSIGT2MO=1.,
 /
