 &NAMGFL
   NACTAERO=12,
 /
 &NAMXFU
   LXSNOWDEPTH=.TRUE.,
 /
