 &NAMAFN
   TFP_RR%LLGP=.TRUE.,
   TFP_SN%LLGP=.TRUE.,
   TFP_TKE%LLGP=.TRUE.,
 /
