 &NAMARG
   CNMEXP='ANAL',
   LELAM=.FALSE.,
   LSLAG=.TRUE.,
   NCONF=933,
   NSUPERSEDE=1,
 /
 &NAMCT0
   LFDBOP=.FALSE.,
   LGRIB_API=.FALSE.,
 /
 &NAMCT1
   LRFILAF=.FALSE.,
 /
 &NAMPAR0
   LMPOFF=.FALSE.,
   MBX_SIZE=2048000000,
   MP_TYPE=2,
   NOUTPUT=1,
   NPROC='NBPROC',
 /
 &NAMPAR1
   NSTRIN=1,
   NSTROUT=1,
 /
