 &NAMAFN
   TFP_CAT2D(1)%CLNAME='EDRDCH.ENS',
   TFP_CAT2D(2)%CLNAME='EDRDCM.ENS',
   TFP_CAT2D(3)%CLNAME='EDRDCL.ENS',
   TFP_CAT2D(4)%CLNAME='CAT.TI1.H.ENS',
   TFP_CAT2D(5)%CLNAME='CAT.TI1.M.ENS',
   TFP_ICINGX%CLNAME='ICINGX.AERO.ENS',
   TFP_T%IBITS=16,
   TFP_U%IBITS=16,
   TFP_V%IBITS=16,
 /
