 &NAMRIP
   CSTOP='FCSTOP',
   TSTEP='TIMESTEP',
 /
