 &NAMGFL
   YI_NL%LGP=.TRUE.,
   YI_NL%LPHY=.FALSE.,
   YI_NL%LT1=.TRUE.,
   YI_NL%NREQIN=1,
   YL_NL%LGP=.TRUE.,
   YL_NL%LPHY=.FALSE.,
   YL_NL%LT1=.TRUE.,
   YL_NL%NREQIN=1,
   YR_NL%LGP=.TRUE.,
   YR_NL%LPHY=.FALSE.,
   YR_NL%LT1=.TRUE.,
   YR_NL%NREQIN=1,
   YS_NL%LGP=.TRUE.,
   YS_NL%LPHY=.FALSE.,
   YS_NL%LT1=.TRUE.,
   YS_NL%NREQIN=1,
   YTKE_NL%LGP=.TRUE.,
   YTKE_NL%LPHY=.FALSE.,
   YTKE_NL%LT1=.TRUE.,
   YTKE_NL%NREQIN=1,
 /
 &NAMRIP
   CSTOP='FCSTOP',
   TSTEP='TIMESTEP',
 /
