 &NAMARG
   CNMEXP='CEXP',
   LELAM=.FALSE.,
   LSLAG=.TRUE.,
   NCONF=931,
   NSUPERSEDE=1,
 /
 &NAMCT0
   LFDBOP=.FALSE.,
 /
 &NAMCT1
   LRFILAF=.FALSE.,
 /
 &NAMPAR0
   LMPOFF=.FALSE.,
   MBX_SIZE=2048000000,
   MP_TYPE=2,
   NOUTPUT=1,
   NPROC=1,
 /
