 &NAMXFU
   LXCLS=.TRUE.,
   LXFU=.TRUE.,
   LXNUVCLS=.TRUE.,
 /
