 &BUFR
 /
 &GRIB
 /
 &HDF5
 /
 &NADIRS
 /
 &NAMDYNCORE
 /
 &NAMSATFREQ
 /
 &NAMSCEN
 /
 &NETCDF
 /
