 &NACIETEO
 /
 &NACOBS
 /
 &NACTAN
 /
 &NACTEX
 /
 &NACVEG
 /
 &NADOCK
 /
 &NAEAEM7
 /
 &NAEAER
 /
 &NAECOAPHY
 /
 &NAEPHLI
 /
 &NAEPHY
 /
 &NAERAD
   LSRTM=.FALSE.,
 /
 &NAERCLI
 /
 &NAETLDIAG
 /
 &NAEVOL
 /
 &NAIMPO
 /
 &NALORI
 /
 &NAMACV
 /
 &NAMAERDET
 /
 &NAMAFN
 /
 &NAMARG
   CNMEXP='CEXP',
   LSLAG=.FALSE.,
   NCONF=903,
   NFPSERVER=1,
   NSUPERSEDE=1,
 /
 &NAMARPHY
 /
 &NAMCA
 /
 &NAMCAPE
 /
 &NAMCFU
 /
 &NAMCHEM
 /
 &NAMCHET
 /
 &NAMCHK
 /
 &NAMCLA
 /
 &NAMCLDP
 /
 &NAMCLI
 /
 &NAMCLOP15
 /
 &NAMCLTC
 /
 &NAMCMEM_MW
 /
 &NAMCOK
 /
 &NAMCOM
 /
 &NAMCOMPO
 /
 &NAMCOSJO
 /
 &NAMCOUPLO4
 /
 &NAMCT0
   CFPNCF=__IOPOLL_WHITNESSFILE__,
   CSCRIPT_PPSERVER=__SERVERSYNC_SCRIPT__,
   LOLDPP=.FALSE.,
   NFPOS=2,
   NFRPOS=__INPUTDATALEN__,
   NPOSTS(0)=0,
   NSPPR=0,
 /
 &NAMCT1
   LRFILAF=.FALSE.,
   N1HIS=0,
 /
 &NAMCUMF
 /
 &NAMCUMFS
 /
 &NAMCVER
 /
 &NAMCVMNH
 /
 &NAMDDH
 /
 &NAMDFI
 /
 &NAMDIM
   NPROMA=-16,
 /
 &NAMDIMO
 /
 &NAMDIM_TRAJ
 /
 &NAMDPHY
 /
 &NAMDPRECIPS
 /
 &NAMDVISI
 /
 &NAMDYN
 /
 &NAMDYNA
 /
 &NAMDYNCORE
 /
 &NAMEMIS_CONF
 /
 &NAMENKF
 /
 &NAMENSCOV
 /
 &NAMFA
 /
 &NAMFAINIT
 /
 &NAMFPC
   CFP2DF(1)='SURFPRESSION',
   CFP2DF(2)='SPECSURFGEOPOTENTIEL',
   CFP3DF(1)='TEMPERATURE',
   CFP3DF(2)='FONC.COURANT',
   CFP3DF(3)='POT.VITESSE',
   CFP3DF(4)='HUMI.SPECIFIQUE',
   CFPDIR='PF',
   CFPDOM(1)='SELF',
   CFPFMT='GAUSS',
   CFPPHY(1)='SURFTEMPERATURE',
   LFPMOIS=.FALSE.,
   NFPCLI=1,
   NFPGRIB=123,
   NRFP3S=1,2,3,4,5,6,7,8,9,10,11,12,13,14,15,16,17,18,19,20,21,22,23,24,25,26,27,28,29,30,31,32,33,34,35,36,37,38,39,40,41,42,43,44,45,46,47,48,49,50,51,52,53,54,55,56,57,58,59,60,61,62,63,64,65,66,67,68,69,70,71,72,73,74,75,76,77,78,79,80,81,82,83,84,85,86,87,88,89,90,91,92,93,94,95,96,97,98,99,100,101,102,103,104,105,
 /
 &NAMFPD
   NLAT=1800,
   NLON=3600,
 /
 &NAMFPDY2
 /
 &NAMFPDYF
 /
 &NAMFPDYH
 /
 &NAMFPDYI
 /
 &NAMFPDYP
 /
 &NAMFPDYS
 /
 &NAMFPDYT
 /
 &NAMFPDYV
 /
 &NAMFPF
 /
 &NAMFPG
   FPLOCEN=0.045,
   FPMUCEN=0.725,
   FPSTRET=2.2,
   FPVALH(0)=0.,20.,30.090025,44.572584,64.862853,93.11036,132.443415,187.540847,263.803409,367.681628,506.562941,688.379537,920.841495,1207.504334,1549.811942,1947.242091,2396.523587,2892.311629,3428.502654,4000.087536,4605.377487,5248.462839,5920.02418,6608.294616,7236.061176,7792.441411,8292.171332,8741.11759,9144.692989,9509.064444,9841.338321,10149.436497,10441.847013,10727.28427,11003.466937,11268.282784,11519.80686,11756.310398,11976.258144,12178.292055,12361.199951,12523.867862,12665.214963,12784.110087,12879.268531,12949.055489,12991.407395,13004.479244,12986.798662,12937.181627,12854.715474,12738.733346,12588.781134,12404.578371,12185.974885,11932.905392,11645.344488,11323.264783,10966.601281,10575.225505,10148.933445,9690.688099,9204.264959,8694.162862,8165.485137,7623.795672,7074.956264,6524.952425,5979.716158,5444.953671,4925.986017,4427.609547,3953.981768,3508.536674,3093.931477,2711.535759,2361.946534,2045.056135,1760.138341,1505.946545,1280.85569,1082.953198,910.128593,760.156637,630.868213,520.135633,425.907991,346.238826,279.306705,223.429418,177.072555,138.853271,107.540044,82.049275,61.52002,45.184675,32.364768,22.465942,14.972363,9.440748,5.494191,2.815962,1.143396,0.262019,0.,0.,
   FPVBH(0)=0.,0.,0.,0.,0.,0.,0.,0.,0.,0.,0.,0.,0.,0.,0.,0.,0.,0.,0.,0.,0.,0.,0.,0.,0.0006583614,0.0019866155,0.0037586329,0.005859263,0.0082085507,0.0107558012,0.0134825104,0.0164075393,0.0195935371,0.0231554825,0.0271081824,0.0314653107,0.0362398827,0.0414449575,0.0470945886,0.0532050399,0.0597962823,0.0668937902,0.0745306536,0.0827500364,0.0916080249,0.1011642928,0.1114385264,0.1224324165,0.1341542901,0.1466112016,0.1598096637,0.1737565294,0.1884600042,0.2039307776,0.2201832544,0.2372368657,0.2551174387,0.2738586045,0.2935032234,0.3141048054,0.3357289042,0.3582970605,0.3817170714,0.405883804,0.4306804128,0.455979918,0.4816470768,0.5075404867,0.5335148193,0.5594231111,0.5851190222,0.6104589853,0.6353041816,0.6595222851,0.6829889557,0.7056187317,0.7273414649,0.7481027784,0.767864256,0.7866034114,0.8043104125,0.8209878455,0.8366502626,0.8513236885,0.8650344412,0.8778133401,0.889695232,0.9007185732,0.9109250642,0.9203593338,0.9290686684,0.9371027834,0.9445136304,0.9513552345,0.9576569759,0.9634485922,0.9687601101,0.9736217877,0.9780640672,0.9821175362,0.9858128963,0.9891809376,0.9922525186,0.9950585503,0.9976299837,1.,
   NFPHTYP=2,
   NFPLEV=105,
   NFPMAX=1798,
   NFPRGRI(   1)=18,
   NFPRGRI(   2)=30,
   NFPRGRI(   3)=32,
   NFPRGRI(   4)=40,
   NFPRGRI(   5)=48,
   NFPRGRI(   6)=54,
   NFPRGRI(   7)=64,
   NFPRGRI(   8)=72,
   NFPRGRI(   9)=80,
   NFPRGRI(  10)=90,
   NFPRGRI(  11)=90,
   NFPRGRI(  12)=96,
   NFPRGRI(  13)=108,
   NFPRGRI(  14)=120,
   NFPRGRI(  15)=120,
   NFPRGRI(  16)=128,
   NFPRGRI(  17)=144,
   NFPRGRI(  18)=144,
   NFPRGRI(  19)=150,
   NFPRGRI(  20)=160,
   NFPRGRI(  21)=160,
   NFPRGRI(  22)=180,
   NFPRGRI(  23)=180,
   NFPRGRI(  24)=180,
   NFPRGRI(  25)=192,
   NFPRGRI(  26)=192,
   NFPRGRI(  27)=200,
   NFPRGRI(  28)=216,
   NFPRGRI(  29)=216,
   NFPRGRI(  30)=240,
   NFPRGRI(  31)=240,
   NFPRGRI(  32)=240,
   NFPRGRI(  33)=240,
   NFPRGRI(  34)=250,
   NFPRGRI(  35)=250,
   NFPRGRI(  36)=256,
   NFPRGRI(  37)=270,
   NFPRGRI(  38)=288,
   NFPRGRI(  39)=288,
   NFPRGRI(  40)=288,
   NFPRGRI(  41)=300,
   NFPRGRI(  42)=300,
   NFPRGRI(  43)=320,
   NFPRGRI(  44)=320,
   NFPRGRI(  45)=320,
   NFPRGRI(  46)=324,
   NFPRGRI(  47)=360,
   NFPRGRI(  48)=360,
   NFPRGRI(  49)=360,
   NFPRGRI(  50)=360,
   NFPRGRI(  51)=360,
   NFPRGRI(  52)=384,
   NFPRGRI(  53)=384,
   NFPRGRI(  54)=384,
   NFPRGRI(  55)=384,
   NFPRGRI(  56)=400,
   NFPRGRI(  57)=400,
   NFPRGRI(  58)=432,
   NFPRGRI(  59)=432,
   NFPRGRI(  60)=432,
   NFPRGRI(  61)=432,
   NFPRGRI(  62)=432,
   NFPRGRI(  63)=450,
   NFPRGRI(  64)=450,
   NFPRGRI(  65)=450,
   NFPRGRI(  66)=480,
   NFPRGRI(  67)=480,
   NFPRGRI(  68)=480,
   NFPRGRI(  69)=480,
   NFPRGRI(  70)=486,
   NFPRGRI(  71)=500,
   NFPRGRI(  72)=500,
   NFPRGRI(  73)=500,
   NFPRGRI(  74)=512,
   NFPRGRI(  75)=512,
   NFPRGRI(  76)=540,
   NFPRGRI(  77)=540,
   NFPRGRI(  78)=540,
   NFPRGRI(  79)=540,
   NFPRGRI(  80)=576,
   NFPRGRI(  81)=576,
   NFPRGRI(  82)=576,
   NFPRGRI(  83)=576,
   NFPRGRI(  84)=576,
   NFPRGRI(  85)=600,
   NFPRGRI(  86)=600,
   NFPRGRI(  87)=600,
   NFPRGRI(  88)=600,
   NFPRGRI(  89)=640,
   NFPRGRI(  90)=640,
   NFPRGRI(  91)=640,
   NFPRGRI(  92)=640,
   NFPRGRI(  93)=640,
   NFPRGRI(  94)=640,
   NFPRGRI(  95)=640,
   NFPRGRI(  96)=648,
   NFPRGRI(  97)=720,
   NFPRGRI(  98)=720,
   NFPRGRI(  99)=720,
   NFPRGRI( 100)=720,
   NFPRGRI( 101)=720,
   NFPRGRI( 102)=720,
   NFPRGRI( 103)=720,
   NFPRGRI( 104)=720,
   NFPRGRI( 105)=720,
   NFPRGRI( 106)=720,
   NFPRGRI( 107)=720,
   NFPRGRI( 108)=750,
   NFPRGRI( 109)=750,
   NFPRGRI( 110)=750,
   NFPRGRI( 111)=750,
   NFPRGRI( 112)=750,
   NFPRGRI( 113)=768,
   NFPRGRI( 114)=768,
   NFPRGRI( 115)=768,
   NFPRGRI( 116)=800,
   NFPRGRI( 117)=800,
   NFPRGRI( 118)=800,
   NFPRGRI( 119)=800,
   NFPRGRI( 120)=800,
   NFPRGRI( 121)=810,
   NFPRGRI( 122)=864,
   NFPRGRI( 123)=864,
   NFPRGRI( 124)=864,
   NFPRGRI( 125)=864,
   NFPRGRI( 126)=864,
   NFPRGRI( 127)=864,
   NFPRGRI( 128)=864,
   NFPRGRI( 129)=864,
   NFPRGRI( 130)=864,
   NFPRGRI( 131)=900,
   NFPRGRI( 132)=900,
   NFPRGRI( 133)=900,
   NFPRGRI( 134)=900,
   NFPRGRI( 135)=900,
   NFPRGRI( 136)=900,
   NFPRGRI( 137)=960,
   NFPRGRI( 138)=960,
   NFPRGRI( 139)=960,
   NFPRGRI( 140)=960,
   NFPRGRI( 141)=960,
   NFPRGRI( 142)=960,
   NFPRGRI( 143)=960,
   NFPRGRI( 144)=960,
   NFPRGRI( 145)=960,
   NFPRGRI( 146)=972,
   NFPRGRI( 147)=972,
   NFPRGRI( 148)=1000,
   NFPRGRI( 149)=1000,
   NFPRGRI( 150)=1000,
   NFPRGRI( 151)=1000,
   NFPRGRI( 152)=1000,
   NFPRGRI( 153)=1024,
   NFPRGRI( 154)=1024,
   NFPRGRI( 155)=1024,
   NFPRGRI( 156)=1024,
   NFPRGRI( 157)=1080,
   NFPRGRI( 158)=1080,
   NFPRGRI( 159)=1080,
   NFPRGRI( 160)=1080,
   NFPRGRI( 161)=1080,
   NFPRGRI( 162)=1080,
   NFPRGRI( 163)=1080,
   NFPRGRI( 164)=1080,
   NFPRGRI( 165)=1080,
   NFPRGRI( 166)=1152,
   NFPRGRI( 167)=1152,
   NFPRGRI( 168)=1152,
   NFPRGRI( 169)=1152,
   NFPRGRI( 170)=1152,
   NFPRGRI( 171)=1152,
   NFPRGRI( 172)=1152,
   NFPRGRI( 173)=1152,
   NFPRGRI( 174)=1152,
   NFPRGRI( 175)=1152,
   NFPRGRI( 176)=1152,
   NFPRGRI( 177)=1200,
   NFPRGRI( 178)=1200,
   NFPRGRI( 179)=1200,
   NFPRGRI( 180)=1200,
   NFPRGRI( 181)=1200,
   NFPRGRI( 182)=1200,
   NFPRGRI( 183)=1200,
   NFPRGRI( 184)=1200,
   NFPRGRI( 185)=1250,
   NFPRGRI( 186)=1250,
   NFPRGRI( 187)=1250,
   NFPRGRI( 188)=1250,
   NFPRGRI( 189)=1250,
   NFPRGRI( 190)=1250,
   NFPRGRI( 191)=1250,
   NFPRGRI( 192)=1250,
   NFPRGRI( 193)=1250,
   NFPRGRI( 194)=1280,
   NFPRGRI( 195)=1280,
   NFPRGRI( 196)=1280,
   NFPRGRI( 197)=1280,
   NFPRGRI( 198)=1280,
   NFPRGRI( 199)=1296,
   NFPRGRI( 200)=1296,
   NFPRGRI( 201)=1350,
   NFPRGRI( 202)=1350,
   NFPRGRI( 203)=1350,
   NFPRGRI( 204)=1350,
   NFPRGRI( 205)=1350,
   NFPRGRI( 206)=1350,
   NFPRGRI( 207)=1350,
   NFPRGRI( 208)=1350,
   NFPRGRI( 209)=1350,
   NFPRGRI( 210)=1440,
   NFPRGRI( 211)=1440,
   NFPRGRI( 212)=1440,
   NFPRGRI( 213)=1440,
   NFPRGRI( 214)=1440,
   NFPRGRI( 215)=1440,
   NFPRGRI( 216)=1440,
   NFPRGRI( 217)=1440,
   NFPRGRI( 218)=1440,
   NFPRGRI( 219)=1440,
   NFPRGRI( 220)=1440,
   NFPRGRI( 221)=1440,
   NFPRGRI( 222)=1440,
   NFPRGRI( 223)=1440,
   NFPRGRI( 224)=1440,
   NFPRGRI( 225)=1458,
   NFPRGRI( 226)=1458,
   NFPRGRI( 227)=1458,
   NFPRGRI( 228)=1458,
   NFPRGRI( 229)=1500,
   NFPRGRI( 230)=1500,
   NFPRGRI( 231)=1500,
   NFPRGRI( 232)=1500,
   NFPRGRI( 233)=1500,
   NFPRGRI( 234)=1500,
   NFPRGRI( 235)=1500,
   NFPRGRI( 236)=1536,
   NFPRGRI( 237)=1536,
   NFPRGRI( 238)=1536,
   NFPRGRI( 239)=1536,
   NFPRGRI( 240)=1536,
   NFPRGRI( 241)=1536,
   NFPRGRI( 242)=1600,
   NFPRGRI( 243)=1600,
   NFPRGRI( 244)=1600,
   NFPRGRI( 245)=1600,
   NFPRGRI( 246)=1600,
   NFPRGRI( 247)=1600,
   NFPRGRI( 248)=1600,
   NFPRGRI( 249)=1600,
   NFPRGRI( 250)=1600,
   NFPRGRI( 251)=1600,
   NFPRGRI( 252)=1600,
   NFPRGRI( 253)=1620,
   NFPRGRI( 254)=1620,
   NFPRGRI( 255)=1620,
   NFPRGRI( 256)=1728,
   NFPRGRI( 257)=1728,
   NFPRGRI( 258)=1728,
   NFPRGRI( 259)=1728,
   NFPRGRI( 260)=1728,
   NFPRGRI( 261)=1728,
   NFPRGRI( 262)=1728,
   NFPRGRI( 263)=1728,
   NFPRGRI( 264)=1728,
   NFPRGRI( 265)=1728,
   NFPRGRI( 266)=1728,
   NFPRGRI( 267)=1728,
   NFPRGRI( 268)=1728,
   NFPRGRI( 269)=1728,
   NFPRGRI( 270)=1728,
   NFPRGRI( 271)=1728,
   NFPRGRI( 272)=1728,
   NFPRGRI( 273)=1728,
   NFPRGRI( 274)=1728,
   NFPRGRI( 275)=1800,
   NFPRGRI( 276)=1800,
   NFPRGRI( 277)=1800,
   NFPRGRI( 278)=1800,
   NFPRGRI( 279)=1800,
   NFPRGRI( 280)=1800,
   NFPRGRI( 281)=1800,
   NFPRGRI( 282)=1800,
   NFPRGRI( 283)=1800,
   NFPRGRI( 284)=1800,
   NFPRGRI( 285)=1800,
   NFPRGRI( 286)=1800,
   NFPRGRI( 287)=1800,
   NFPRGRI( 288)=1920,
   NFPRGRI( 289)=1920,
   NFPRGRI( 290)=1920,
   NFPRGRI( 291)=1920,
   NFPRGRI( 292)=1920,
   NFPRGRI( 293)=1920,
   NFPRGRI( 294)=1920,
   NFPRGRI( 295)=1920,
   NFPRGRI( 296)=1920,
   NFPRGRI( 297)=1920,
   NFPRGRI( 298)=1920,
   NFPRGRI( 299)=1920,
   NFPRGRI( 300)=1920,
   NFPRGRI( 301)=1920,
   NFPRGRI( 302)=1920,
   NFPRGRI( 303)=1920,
   NFPRGRI( 304)=1920,
   NFPRGRI( 305)=1920,
   NFPRGRI( 306)=1920,
   NFPRGRI( 307)=1920,
   NFPRGRI( 308)=1920,
   NFPRGRI( 309)=1920,
   NFPRGRI( 310)=1944,
   NFPRGRI( 311)=1944,
   NFPRGRI( 312)=1944,
   NFPRGRI( 313)=1944,
   NFPRGRI( 314)=1944,
   NFPRGRI( 315)=2000,
   NFPRGRI( 316)=2000,
   NFPRGRI( 317)=2000,
   NFPRGRI( 318)=2000,
   NFPRGRI( 319)=2000,
   NFPRGRI( 320)=2000,
   NFPRGRI( 321)=2000,
   NFPRGRI( 322)=2000,
   NFPRGRI( 323)=2000,
   NFPRGRI( 324)=2000,
   NFPRGRI( 325)=2048,
   NFPRGRI( 326)=2048,
   NFPRGRI( 327)=2048,
   NFPRGRI( 328)=2048,
   NFPRGRI( 329)=2048,
   NFPRGRI( 330)=2048,
   NFPRGRI( 331)=2048,
   NFPRGRI( 332)=2048,
   NFPRGRI( 333)=2048,
   NFPRGRI( 334)=2160,
   NFPRGRI( 335)=2160,
   NFPRGRI( 336)=2160,
   NFPRGRI( 337)=2160,
   NFPRGRI( 338)=2160,
   NFPRGRI( 339)=2160,
   NFPRGRI( 340)=2160,
   NFPRGRI( 341)=2160,
   NFPRGRI( 342)=2160,
   NFPRGRI( 343)=2160,
   NFPRGRI( 344)=2160,
   NFPRGRI( 345)=2160,
   NFPRGRI( 346)=2160,
   NFPRGRI( 347)=2160,
   NFPRGRI( 348)=2160,
   NFPRGRI( 349)=2160,
   NFPRGRI( 350)=2160,
   NFPRGRI( 351)=2160,
   NFPRGRI( 352)=2160,
   NFPRGRI( 353)=2160,
   NFPRGRI( 354)=2160,
   NFPRGRI( 355)=2160,
   NFPRGRI( 356)=2250,
   NFPRGRI( 357)=2250,
   NFPRGRI( 358)=2250,
   NFPRGRI( 359)=2250,
   NFPRGRI( 360)=2250,
   NFPRGRI( 361)=2250,
   NFPRGRI( 362)=2250,
   NFPRGRI( 363)=2250,
   NFPRGRI( 364)=2250,
   NFPRGRI( 365)=2250,
   NFPRGRI( 366)=2250,
   NFPRGRI( 367)=2250,
   NFPRGRI( 368)=2250,
   NFPRGRI( 369)=2250,
   NFPRGRI( 370)=2250,
   NFPRGRI( 371)=2250,
   NFPRGRI( 372)=2250,
   NFPRGRI( 373)=2304,
   NFPRGRI( 374)=2304,
   NFPRGRI( 375)=2304,
   NFPRGRI( 376)=2304,
   NFPRGRI( 377)=2304,
   NFPRGRI( 378)=2304,
   NFPRGRI( 379)=2304,
   NFPRGRI( 380)=2304,
   NFPRGRI( 381)=2304,
   NFPRGRI( 382)=2304,
   NFPRGRI( 383)=2304,
   NFPRGRI( 384)=2400,
   NFPRGRI( 385)=2400,
   NFPRGRI( 386)=2400,
   NFPRGRI( 387)=2400,
   NFPRGRI( 388)=2400,
   NFPRGRI( 389)=2400,
   NFPRGRI( 390)=2400,
   NFPRGRI( 391)=2400,
   NFPRGRI( 392)=2400,
   NFPRGRI( 393)=2400,
   NFPRGRI( 394)=2400,
   NFPRGRI( 395)=2400,
   NFPRGRI( 396)=2400,
   NFPRGRI( 397)=2400,
   NFPRGRI( 398)=2400,
   NFPRGRI( 399)=2400,
   NFPRGRI( 400)=2400,
   NFPRGRI( 401)=2400,
   NFPRGRI( 402)=2400,
   NFPRGRI( 403)=2400,
   NFPRGRI( 404)=2430,
   NFPRGRI( 405)=2430,
   NFPRGRI( 406)=2430,
   NFPRGRI( 407)=2430,
   NFPRGRI( 408)=2430,
   NFPRGRI( 409)=2430,
   NFPRGRI( 410)=2500,
   NFPRGRI( 411)=2500,
   NFPRGRI( 412)=2500,
   NFPRGRI( 413)=2500,
   NFPRGRI( 414)=2500,
   NFPRGRI( 415)=2500,
   NFPRGRI( 416)=2500,
   NFPRGRI( 417)=2500,
   NFPRGRI( 418)=2500,
   NFPRGRI( 419)=2500,
   NFPRGRI( 420)=2500,
   NFPRGRI( 421)=2500,
   NFPRGRI( 422)=2500,
   NFPRGRI( 423)=2500,
   NFPRGRI( 424)=2500,
   NFPRGRI( 425)=2500,
   NFPRGRI( 426)=2560,
   NFPRGRI( 427)=2560,
   NFPRGRI( 428)=2560,
   NFPRGRI( 429)=2560,
   NFPRGRI( 430)=2560,
   NFPRGRI( 431)=2560,
   NFPRGRI( 432)=2560,
   NFPRGRI( 433)=2560,
   NFPRGRI( 434)=2560,
   NFPRGRI( 435)=2560,
   NFPRGRI( 436)=2560,
   NFPRGRI( 437)=2560,
   NFPRGRI( 438)=2560,
   NFPRGRI( 439)=2592,
   NFPRGRI( 440)=2592,
   NFPRGRI( 441)=2592,
   NFPRGRI( 442)=2592,
   NFPRGRI( 443)=2592,
   NFPRGRI( 444)=2592,
   NFPRGRI( 445)=2592,
   NFPRGRI( 446)=2700,
   NFPRGRI( 447)=2700,
   NFPRGRI( 448)=2700,
   NFPRGRI( 449)=2700,
   NFPRGRI( 450)=2700,
   NFPRGRI( 451)=2700,
   NFPRGRI( 452)=2700,
   NFPRGRI( 453)=2700,
   NFPRGRI( 454)=2700,
   NFPRGRI( 455)=2700,
   NFPRGRI( 456)=2700,
   NFPRGRI( 457)=2700,
   NFPRGRI( 458)=2700,
   NFPRGRI( 459)=2700,
   NFPRGRI( 460)=2700,
   NFPRGRI( 461)=2700,
   NFPRGRI( 462)=2700,
   NFPRGRI( 463)=2700,
   NFPRGRI( 464)=2700,
   NFPRGRI( 465)=2700,
   NFPRGRI( 466)=2700,
   NFPRGRI( 467)=2700,
   NFPRGRI( 468)=2700,
   NFPRGRI( 469)=2700,
   NFPRGRI( 470)=2880,
   NFPRGRI( 471)=2880,
   NFPRGRI( 472)=2880,
   NFPRGRI( 473)=2880,
   NFPRGRI( 474)=2880,
   NFPRGRI( 475)=2880,
   NFPRGRI( 476)=2880,
   NFPRGRI( 477)=2880,
   NFPRGRI( 478)=2880,
   NFPRGRI( 479)=2880,
   NFPRGRI( 480)=2880,
   NFPRGRI( 481)=2880,
   NFPRGRI( 482)=2880,
   NFPRGRI( 483)=2880,
   NFPRGRI( 484)=2880,
   NFPRGRI( 485)=2880,
   NFPRGRI( 486)=2880,
   NFPRGRI( 487)=2880,
   NFPRGRI( 488)=2880,
   NFPRGRI( 489)=2880,
   NFPRGRI( 490)=2880,
   NFPRGRI( 491)=2880,
   NFPRGRI( 492)=2880,
   NFPRGRI( 493)=2880,
   NFPRGRI( 494)=2880,
   NFPRGRI( 495)=2880,
   NFPRGRI( 496)=2880,
   NFPRGRI( 497)=2880,
   NFPRGRI( 498)=2880,
   NFPRGRI( 499)=2880,
   NFPRGRI( 500)=2880,
   NFPRGRI( 501)=2880,
   NFPRGRI( 502)=2880,
   NFPRGRI( 503)=2880,
   NFPRGRI( 504)=2880,
   NFPRGRI( 505)=2880,
   NFPRGRI( 506)=2880,
   NFPRGRI( 507)=2880,
   NFPRGRI( 508)=2880,
   NFPRGRI( 509)=2880,
   NFPRGRI( 510)=2880,
   NFPRGRI( 511)=2880,
   NFPRGRI( 512)=2880,
   NFPRGRI( 513)=2880,
   NFPRGRI( 514)=2880,
   NFPRGRI( 515)=2916,
   NFPRGRI( 516)=2916,
   NFPRGRI( 517)=2916,
   NFPRGRI( 518)=2916,
   NFPRGRI( 519)=2916,
   NFPRGRI( 520)=2916,
   NFPRGRI( 521)=2916,
   NFPRGRI( 522)=2916,
   NFPRGRI( 523)=2916,
   NFPRGRI( 524)=3000,
   NFPRGRI( 525)=3000,
   NFPRGRI( 526)=3000,
   NFPRGRI( 527)=3000,
   NFPRGRI( 528)=3000,
   NFPRGRI( 529)=3000,
   NFPRGRI( 530)=3000,
   NFPRGRI( 531)=3000,
   NFPRGRI( 532)=3000,
   NFPRGRI( 533)=3000,
   NFPRGRI( 534)=3000,
   NFPRGRI( 535)=3000,
   NFPRGRI( 536)=3000,
   NFPRGRI( 537)=3000,
   NFPRGRI( 538)=3000,
   NFPRGRI( 539)=3000,
   NFPRGRI( 540)=3000,
   NFPRGRI( 541)=3000,
   NFPRGRI( 542)=3000,
   NFPRGRI( 543)=3000,
   NFPRGRI( 544)=3000,
   NFPRGRI( 545)=3000,
   NFPRGRI( 546)=3000,
   NFPRGRI( 547)=3072,
   NFPRGRI( 548)=3072,
   NFPRGRI( 549)=3072,
   NFPRGRI( 550)=3072,
   NFPRGRI( 551)=3072,
   NFPRGRI( 552)=3072,
   NFPRGRI( 553)=3072,
   NFPRGRI( 554)=3072,
   NFPRGRI( 555)=3072,
   NFPRGRI( 556)=3072,
   NFPRGRI( 557)=3072,
   NFPRGRI( 558)=3072,
   NFPRGRI( 559)=3072,
   NFPRGRI( 560)=3072,
   NFPRGRI( 561)=3072,
   NFPRGRI( 562)=3072,
   NFPRGRI( 563)=3072,
   NFPRGRI( 564)=3072,
   NFPRGRI( 565)=3072,
   NFPRGRI( 566)=3072,
   NFPRGRI( 567)=3072,
   NFPRGRI( 568)=3200,
   NFPRGRI( 569)=3200,
   NFPRGRI( 570)=3200,
   NFPRGRI( 571)=3200,
   NFPRGRI( 572)=3200,
   NFPRGRI( 573)=3200,
   NFPRGRI( 574)=3200,
   NFPRGRI( 575)=3200,
   NFPRGRI( 576)=3200,
   NFPRGRI( 577)=3200,
   NFPRGRI( 578)=3200,
   NFPRGRI( 579)=3200,
   NFPRGRI( 580)=3200,
   NFPRGRI( 581)=3200,
   NFPRGRI( 582)=3200,
   NFPRGRI( 583)=3200,
   NFPRGRI( 584)=3200,
   NFPRGRI( 585)=3200,
   NFPRGRI( 586)=3200,
   NFPRGRI( 587)=3200,
   NFPRGRI( 588)=3200,
   NFPRGRI( 589)=3200,
   NFPRGRI( 590)=3200,
   NFPRGRI( 591)=3200,
   NFPRGRI( 592)=3200,
   NFPRGRI( 593)=3200,
   NFPRGRI( 594)=3200,
   NFPRGRI( 595)=3200,
   NFPRGRI( 596)=3200,
   NFPRGRI( 597)=3200,
   NFPRGRI( 598)=3200,
   NFPRGRI( 599)=3200,
   NFPRGRI( 600)=3200,
   NFPRGRI( 601)=3200,
   NFPRGRI( 602)=3200,
   NFPRGRI( 603)=3200,
   NFPRGRI( 604)=3200,
   NFPRGRI( 605)=3200,
   NFPRGRI( 606)=3200,
   NFPRGRI( 607)=3200,
   NFPRGRI( 608)=3240,
   NFPRGRI( 609)=3240,
   NFPRGRI( 610)=3240,
   NFPRGRI( 611)=3240,
   NFPRGRI( 612)=3240,
   NFPRGRI( 613)=3240,
   NFPRGRI( 614)=3240,
   NFPRGRI( 615)=3240,
   NFPRGRI( 616)=3240,
   NFPRGRI( 617)=3240,
   NFPRGRI( 618)=3240,
   NFPRGRI( 619)=3240,
   NFPRGRI( 620)=3240,
   NFPRGRI( 621)=3240,
   NFPRGRI( 622)=3456,
   NFPRGRI( 623)=3456,
   NFPRGRI( 624)=3456,
   NFPRGRI( 625)=3456,
   NFPRGRI( 626)=3456,
   NFPRGRI( 627)=3456,
   NFPRGRI( 628)=3456,
   NFPRGRI( 629)=3456,
   NFPRGRI( 630)=3456,
   NFPRGRI( 631)=3456,
   NFPRGRI( 632)=3456,
   NFPRGRI( 633)=3456,
   NFPRGRI( 634)=3456,
   NFPRGRI( 635)=3456,
   NFPRGRI( 636)=3456,
   NFPRGRI( 637)=3456,
   NFPRGRI( 638)=3456,
   NFPRGRI( 639)=3456,
   NFPRGRI( 640)=3456,
   NFPRGRI( 641)=3456,
   NFPRGRI( 642)=3456,
   NFPRGRI( 643)=3456,
   NFPRGRI( 644)=3456,
   NFPRGRI( 645)=3456,
   NFPRGRI( 646)=3456,
   NFPRGRI( 647)=3456,
   NFPRGRI( 648)=3456,
   NFPRGRI( 649)=3456,
   NFPRGRI( 650)=3456,
   NFPRGRI( 651)=3456,
   NFPRGRI( 652)=3456,
   NFPRGRI( 653)=3456,
   NFPRGRI( 654)=3456,
   NFPRGRI( 655)=3456,
   NFPRGRI( 656)=3456,
   NFPRGRI( 657)=3456,
   NFPRGRI( 658)=3456,
   NFPRGRI( 659)=3456,
   NFPRGRI( 660)=3456,
   NFPRGRI( 661)=3456,
   NFPRGRI( 662)=3456,
   NFPRGRI( 663)=3456,
   NFPRGRI( 664)=3456,
   NFPRGRI( 665)=3456,
   NFPRGRI( 666)=3456,
   NFPRGRI( 667)=3456,
   NFPRGRI( 668)=3456,
   NFPRGRI( 669)=3456,
   NFPRGRI( 670)=3456,
   NFPRGRI( 671)=3456,
   NFPRGRI( 672)=3456,
   NFPRGRI( 673)=3456,
   NFPRGRI( 674)=3456,
   NFPRGRI( 675)=3456,
   NFPRGRI( 676)=3456,
   NFPRGRI( 677)=3456,
   NFPRGRI( 678)=3456,
   NFPRGRI( 679)=3456,
   NFPRGRI( 680)=3456,
   NFPRGRI( 681)=3456,
   NFPRGRI( 682)=3456,
   NFPRGRI( 683)=3456,
   NFPRGRI( 684)=3456,
   NFPRGRI( 685)=3456,
   NFPRGRI( 686)=3456,
   NFPRGRI( 687)=3456,
   NFPRGRI( 688)=3456,
   NFPRGRI( 689)=3456,
   NFPRGRI( 690)=3456,
   NFPRGRI( 691)=3456,
   NFPRGRI( 692)=3456,
   NFPRGRI( 693)=3456,
   NFPRGRI( 694)=3456,
   NFPRGRI( 695)=3456,
   NFPRGRI( 696)=3456,
   NFPRGRI( 697)=3456,
   NFPRGRI( 698)=3456,
   NFPRGRI( 699)=3456,
   NFPRGRI( 700)=3456,
   NFPRGRI( 701)=3456,
   NFPRGRI( 702)=3456,
   NFPRGRI( 703)=3456,
   NFPRGRI( 704)=3456,
   NFPRGRI( 705)=3456,
   NFPRGRI( 706)=3456,
   NFPRGRI( 707)=3456,
   NFPRGRI( 708)=3456,
   NFPRGRI( 709)=3456,
   NFPRGRI( 710)=3456,
   NFPRGRI( 711)=3456,
   NFPRGRI( 712)=3456,
   NFPRGRI( 713)=3600,
   NFPRGRI( 714)=3600,
   NFPRGRI( 715)=3600,
   NFPRGRI( 716)=3600,
   NFPRGRI( 717)=3600,
   NFPRGRI( 718)=3600,
   NFPRGRI( 719)=3600,
   NFPRGRI( 720)=3600,
   NFPRGRI( 721)=3600,
   NFPRGRI( 722)=3600,
   NFPRGRI( 723)=3600,
   NFPRGRI( 724)=3600,
   NFPRGRI( 725)=3600,
   NFPRGRI( 726)=3600,
   NFPRGRI( 727)=3600,
   NFPRGRI( 728)=3600,
   NFPRGRI( 729)=3600,
   NFPRGRI( 730)=3600,
   NFPRGRI( 731)=3600,
   NFPRGRI( 732)=3600,
   NFPRGRI( 733)=3600,
   NFPRGRI( 734)=3600,
   NFPRGRI( 735)=3600,
   NFPRGRI( 736)=3600,
   NFPRGRI( 737)=3600,
   NFPRGRI( 738)=3600,
   NFPRGRI( 739)=3600,
   NFPRGRI( 740)=3600,
   NFPRGRI( 741)=3600,
   NFPRGRI( 742)=3600,
   NFPRGRI( 743)=3600,
   NFPRGRI( 744)=3600,
   NFPRGRI( 745)=3600,
   NFPRGRI( 746)=3600,
   NFPRGRI( 747)=3600,
   NFPRGRI( 748)=3600,
   NFPRGRI( 749)=3600,
   NFPRGRI( 750)=3600,
   NFPRGRI( 751)=3600,
   NFPRGRI( 752)=3600,
   NFPRGRI( 753)=3600,
   NFPRGRI( 754)=3600,
   NFPRGRI( 755)=3600,
   NFPRGRI( 756)=3600,
   NFPRGRI( 757)=3600,
   NFPRGRI( 758)=3600,
   NFPRGRI( 759)=3600,
   NFPRGRI( 760)=3600,
   NFPRGRI( 761)=3600,
   NFPRGRI( 762)=3600,
   NFPRGRI( 763)=3600,
   NFPRGRI( 764)=3600,
   NFPRGRI( 765)=3600,
   NFPRGRI( 766)=3600,
   NFPRGRI( 767)=3600,
   NFPRGRI( 768)=3600,
   NFPRGRI( 769)=3600,
   NFPRGRI( 770)=3600,
   NFPRGRI( 771)=3600,
   NFPRGRI( 772)=3600,
   NFPRGRI( 773)=3600,
   NFPRGRI( 774)=3600,
   NFPRGRI( 775)=3600,
   NFPRGRI( 776)=3600,
   NFPRGRI( 777)=3600,
   NFPRGRI( 778)=3600,
   NFPRGRI( 779)=3600,
   NFPRGRI( 780)=3600,
   NFPRGRI( 781)=3600,
   NFPRGRI( 782)=3600,
   NFPRGRI( 783)=3600,
   NFPRGRI( 784)=3600,
   NFPRGRI( 785)=3600,
   NFPRGRI( 786)=3600,
   NFPRGRI( 787)=3600,
   NFPRGRI( 788)=3600,
   NFPRGRI( 789)=3600,
   NFPRGRI( 790)=3600,
   NFPRGRI( 791)=3600,
   NFPRGRI( 792)=3600,
   NFPRGRI( 793)=3600,
   NFPRGRI( 794)=3600,
   NFPRGRI( 795)=3600,
   NFPRGRI( 796)=3600,
   NFPRGRI( 797)=3600,
   NFPRGRI( 798)=3600,
   NFPRGRI( 799)=3600,
   NFPRGRI( 800)=3600,
   NFPRGRI( 801)=3600,
   NFPRGRI( 802)=3600,
   NFPRGRI( 803)=3600,
   NFPRGRI( 804)=3600,
   NFPRGRI( 805)=3600,
   NFPRGRI( 806)=3600,
   NFPRGRI( 807)=3600,
   NFPRGRI( 808)=3600,
   NFPRGRI( 809)=3600,
   NFPRGRI( 810)=3600,
   NFPRGRI( 811)=3600,
   NFPRGRI( 812)=3600,
   NFPRGRI( 813)=3600,
   NFPRGRI( 814)=3600,
   NFPRGRI( 815)=3600,
   NFPRGRI( 816)=3600,
   NFPRGRI( 817)=3600,
   NFPRGRI( 818)=3600,
   NFPRGRI( 819)=3600,
   NFPRGRI( 820)=3600,
   NFPRGRI( 821)=3600,
   NFPRGRI( 822)=3600,
   NFPRGRI( 823)=3600,
   NFPRGRI( 824)=3600,
   NFPRGRI( 825)=3600,
   NFPRGRI( 826)=3600,
   NFPRGRI( 827)=3600,
   NFPRGRI( 828)=3600,
   NFPRGRI( 829)=3600,
   NFPRGRI( 830)=3600,
   NFPRGRI( 831)=3600,
   NFPRGRI( 832)=3600,
   NFPRGRI( 833)=3600,
   NFPRGRI( 834)=3600,
   NFPRGRI( 835)=3600,
   NFPRGRI( 836)=3600,
   NFPRGRI( 837)=3600,
   NFPRGRI( 838)=3600,
   NFPRGRI( 839)=3600,
   NFPRGRI( 840)=3600,
   NFPRGRI( 841)=3600,
   NFPRGRI( 842)=3600,
   NFPRGRI( 843)=3600,
   NFPRGRI( 844)=3600,
   NFPRGRI( 845)=3600,
   NFPRGRI( 846)=3600,
   NFPRGRI( 847)=3600,
   NFPRGRI( 848)=3600,
   NFPRGRI( 849)=3600,
   NFPRGRI( 850)=3600,
   NFPRGRI( 851)=3600,
   NFPRGRI( 852)=3600,
   NFPRGRI( 853)=3600,
   NFPRGRI( 854)=3600,
   NFPRGRI( 855)=3600,
   NFPRGRI( 856)=3600,
   NFPRGRI( 857)=3600,
   NFPRGRI( 858)=3600,
   NFPRGRI( 859)=3600,
   NFPRGRI( 860)=3600,
   NFPRGRI( 861)=3600,
   NFPRGRI( 862)=3600,
   NFPRGRI( 863)=3600,
   NFPRGRI( 864)=3600,
   NFPRGRI( 865)=3600,
   NFPRGRI( 866)=3600,
   NFPRGRI( 867)=3600,
   NFPRGRI( 868)=3600,
   NFPRGRI( 869)=3600,
   NFPRGRI( 870)=3600,
   NFPRGRI( 871)=3600,
   NFPRGRI( 872)=3600,
   NFPRGRI( 873)=3600,
   NFPRGRI( 874)=3600,
   NFPRGRI( 875)=3600,
   NFPRGRI( 876)=3600,
   NFPRGRI( 877)=3600,
   NFPRGRI( 878)=3600,
   NFPRGRI( 879)=3600,
   NFPRGRI( 880)=3600,
   NFPRGRI( 881)=3600,
   NFPRGRI( 882)=3600,
   NFPRGRI( 883)=3600,
   NFPRGRI( 884)=3600,
   NFPRGRI( 885)=3600,
   NFPRGRI( 886)=3600,
   NFPRGRI( 887)=3600,
   NFPRGRI( 888)=3600,
   NFPRGRI( 889)=3600,
   NFPRGRI( 890)=3600,
   NFPRGRI( 891)=3600,
   NFPRGRI( 892)=3600,
   NFPRGRI( 893)=3600,
   NFPRGRI( 894)=3600,
   NFPRGRI( 895)=3600,
   NFPRGRI( 896)=3600,
   NFPRGRI( 897)=3600,
   NFPRGRI( 898)=3600,
   NFPRGRI( 899)=3600,
   NFPRGRI( 900)=3600,
   NFPTTYP=2,
 /
 &NAMFPIOS
   NFPXFLD=107,
 /
 &NAMFPMOVE
 /
 &NAMFPOBJ
 /
 &NAMFPPHY
 /
 &NAMFPSC2
 /
 &NAMFPSC2_DEP
 /
 &NAMGEM
 /
 &NAMGFL
 /
 &NAMGRIB
 /
 &NAMGWD
 /
 &NAMGWDIAG
 /
 &NAMGWWMS
 /
 &NAMIAU
 /
 &NAMICE
 /
 &NAMINI
 /
 &NAMINTFLEX
 /
 &NAMIOMI
 /
 &NAMIOS
 /
 &NAMIO_SERV
 /
 &NAMJBCODES
 /
 &NAMJG
 /
 &NAMLCZ
 /
 &NAMLIMA
 /
 &NAMLSFORC
 /
 &NAMMARS
 /
 &NAMMCC
 /
 &NAMMCUF
 /
 &NAMMETHOX
 /
 &NAMMKODB
 /
 &NAMMODERR
 /
 &NAMMTS
 /
 &NAMMWAVE
 /
 &NAMNORGWD
 /
 &NAMNPROF
 /
 &NAMNUD
 /
 &NAMNUDGLH
 /
 &NAMOBS
 /
 &NAMONEDVAR
 /
 &NAMOOPS
 /
 &NAMOPH
 /
 &NAMOPTCMEM
 /
 &NAMPAR0
   MBX_SIZE=2048000000,
   MP_TYPE=2,
   NOUTPUT=1,
   NPROC='NBPROC',
   NPRTRV=1,
   NPRTRW='NBPROC',
 /
 &NAMPAR1
   LEQ_REGIONS=.TRUE.,
   LSLONDEM=.TRUE.,
   LSPLIT=.TRUE.,
   NCOMBFLEN=1638400,
   NSTRIN='NBPROC',
   NSTROUT=36,
 /
 &NAMPARAR
 /
 &NAMPERTOBS
 /
 &NAMPERTPAR
 /
 &NAMPHMSE
 /
 &NAMPHY
 /
 &NAMPHY0
 /
 &NAMPHY1
 /
 &NAMPHY2
 /
 &NAMPHY3
 /
 &NAMPHYDS
 /
 &NAMPPC
 /
 &NAMPPVI
 /
 &NAMPRE
 /
 &NAMPSOT
 /
 &NAMRAD15
 /
 &NAMRADCMEM
 /
 &NAMRCF
 /
 &NAMRCOEF
 /
 &NAMRES
 /
 &NAMRGRI
 /
 &NAMRINC
 /
 &NAMRIP
 /
 &NAMRIP0
 /
 &NAMRLX
 /
 &NAMSATS
 /
 &NAMSATSIM
 /
 &NAMSCC
 /
 &NAMSCEN
 /
 &NAMSCM
 /
 &NAMSEKF
 /
 &NAMSENS
 /
 &NAMSFXCMP
 /
 &NAMSIMPHL
 /
 &NAMSPNG
 /
 &NAMSPP
 /
 &NAMSPSDT
 /
 &NAMSTA
 /
 &NAMSTOPH
 /
 &NAMSWE
 /
 &NAMTESTVAR
 /
 &NAMTHLIM
 /
 &NAMTOPH
 /
 &NAMTRAJ
 /
 &NAMTRAJP
 /
 &NAMTRANS
   LFFTW=.TRUE.,
 /
 &NAMTRANS0
 /
 &NAMTS
 /
 &NAMVAR
 /
 &NAMVARBC
 /
 &NAMVARBC_AIREP
 /
 &NAMVARBC_ALLSKY
 /
 &NAMVARBC_GBRAD
 /
 &NAMVARBC_MODES
 /
 &NAMVARBC_RAD
 /
 &NAMVARBC_RSONDE
 /
 &NAMVARBC_SFCOBS
 /
 &NAMVARBC_TCWV
 /
 &NAMVARBC_TO3
 /
 &NAMVAREPS
 /
 &NAMVDF
 /
 &NAMVDOZ
 /
 &NAMVOLCANO
 /
 &NAMVRTL
 /
 &NAMVV0
 /
 &NAMVV1
 /
 &NAMVWRK
 /
 &NAMWAVELETJB
 /
 &NAMXFU
 /
 &NAM_ASSIM
 /
 &NAM_CANAPE
 /
 &NAM_DISTRIBUTED_VECTORS
 /
 &NAM_REPROD_OPER
 /
 &NAPHLC
 /
 &NEMCT0
 /
 &NEMDIM
 /
 &NEMDYN
 /
 &NEMELBC0A
 /
 &NEMELBC0B
 /
 &NEMFPEZO
 /
 &NEMGEO
 /
 &NEMJK
 /
 &NEMVAR
 /
 &NEMWAVELET
 /
 &RADIATION
 /
