 &NAMDIM
   NCMAX=319,
   NDGLG=640,
   NDGUXG=629,
   NDLON=600,
   NDLUXG=589,
   NFLEVG=90,
   NIOLEVG=90,
   NMSMAX=299,
   NSMAX=319,
   NSTENCILWIDE=2,
   NVARMAX=299,
 /
 &NEMGEO
   EDELX=3200.,
   EDELY=3200.,
   ELAT0=46.7,
   ELATC=46.7,
   ELON0=2.,
   ELONC=2.,
   LMAP=.TRUE.,
   LMRT=.FALSE.,
 /
