 &NAMDIM
   KSMAX=95,
   LSETDIM=.TRUE.,
 /
