 &NACIETEO
 /
 &NACOBS
   ORODIF=10000.,
   OROLIM=10000.,
 /
 &NACTAN
 /
 &NACTEX
   LAECDS=.FALSE.,
   LAECHK=.FALSE.,
   LAEH2M=.FALSE.,
   LAEHUM=.FALSE.,
   LAEICS=.FALSE.,
   LAEICS_SX=.FALSE.,
   LAEINC=.TRUE.,
   LAEOMF=.FALSE.,
   LAEOMN=.FALSE.,
   LAEPDS=.FALSE.,
   LAERFO=.FALSE.,
   LAESNM=.FALSE.,
   LAESST=.FALSE.,
   LAESTA=.FALSE.,
   LAESTU=.FALSE.,
   LAET2M=.FALSE.,
   LAEUPFLG=.FALSE.,
   LAEUVT=.FALSE.,
   LAEV1M=.FALSE.,
   LAEWIO=.FALSE.,
   NAEINC=0,
   NSEAICE=0,
   NSSTLIS=0,
   RCLIMCA=0.,
   RCLISST=0.,
   RWPIB=2.,
 /
 &NACVEG
   ANEBUL=0.75,
   LHUMID=.TRUE.,
   LIMVEG=.TRUE.,
   LISSEW=.FALSE.,
   L_SM_WP=.FALSE.,
   MINDJ=6,
   NNEBUL=1,
   NNEIGT=0,
   NNEIGW=1,
   NR_SM_WP=1,
   RA_SM_WP=5000.,
   RCLIMN=0.,
   RCLIMTP=1.,
   RCLIMTS=0.,
   RCLIMV=1.,
   RCLIMWP=0.1,
   RCLIMWS=0.,
   SCOEFH=0.,
   SCOEFT=0.,
   SEVAP=0.,
   SICE=5.,
   SIGH2MO=0.1,
   SIGT2MO=1.,
   SMU0=7.,
   SNEIGT=1.,
   SNEIGW=0.,
   SPRECIP=0.3,
   SWFC=1.,
   V10MX=10.,
 /
 &NADOCK
   NMXGQA(1)=100,30,10,10,6,6,5,0,0,0,
   QCORMIN(1)=0.05,0.05,0.05,0.05,0.05,0.05,0.05,0.05,0.01,0.,
 /
 &NAEAEM7
 /
 &NAEAER
 /
 &NAECOAPHY
 /
 &NAEPHLI
 /
 &NAEPHY
 /
 &NAERAD
   LSRTM=.FALSE.,
 /
 &NAERCLI
 /
 &NAETLDIAG
 /
 &NAEVOL
 /
 &NAIMPO
 /
 &NALORI
   LCORRF=.TRUE.,
   LMESCAN=.TRUE.,
   RCALPH=0.,
 /
 &NAMACV
 /
 &NAMAERDET
 /
 &NAMAFN
 /
 &NAMARG
   CNMEXP='CEXP',
   LSLAG=.TRUE.,
   NCONF=701,
   NSUPERSEDE=1,
 /
 &NAMARPHY
 /
 &NAMCA
 /
 &NAMCAPE
 /
 &NAMCFU
 /
 &NAMCHEM
 /
 &NAMCHET
 /
 &NAMCHK
 /
 &NAMCLA
 /
 &NAMCLDP
 /
 &NAMCLI
 /
 &NAMCLOP15
 /
 &NAMCLTC
 /
 &NAMCMEM_MW
 /
 &NAMCOK
   RCH2SY=2.5,
   RCT2SY=3.9,
 /
 &NAMCOM
 /
 &NAMCOMPO
 /
 &NAMCOSJO
 /
 &NAMCOUPLO4
 /
 &NAMCT0
   LFDBOP=.FALSE.,
   LINFLAT=.TRUE.,
   LNHEE=.TRUE.,
   LOBS=.FALSE.,
   NSPPR=0,
 /
 &NAMCT1
   LRFILAF=.FALSE.,
 /
 &NAMCUMF
 /
 &NAMCUMFS
 /
 &NAMCVER
 /
 &NAMCVMNH
 /
 &NAMDDH
 /
 &NAMDFI
 /
 &NAMDIM
   NPROMA=-16,
 /
 &NAMDIMO
 /
 &NAMDIM_TRAJ
 /
 &NAMDPHY
 /
 &NAMDPRECIPS
 /
 &NAMDVISI
 /
 &NAMDYN
 /
 &NAMDYNA
   NPDVAR=2,
   NVDVAR=4,
 /
 &NAMDYNCORE
 /
 &NAMEMIS_CONF
 /
 &NAMENKF
 /
 &NAMENSCOV
 /
 &NAMFA
   YFAG='GRAUPEL',
   YFAI='ICE_CRYSTAL',
   YFAL='CLOUD_WATER',
   YFAR='RAIN',
   YFAS='SNOW',
 /
 &NAMFAINIT
 /
 &NAMFPC
 /
 &NAMFPD
 /
 &NAMFPDY2
 /
 &NAMFPDYF
 /
 &NAMFPDYH
 /
 &NAMFPDYI
 /
 &NAMFPDYP
 /
 &NAMFPDYS
 /
 &NAMFPDYT
 /
 &NAMFPDYV
 /
 &NAMFPF
 /
 &NAMFPG
 /
 &NAMFPIOS
 /
 &NAMFPMOVE
 /
 &NAMFPOBJ
 /
 &NAMFPPHY
 /
 &NAMFPSC2
 /
 &NAMFPSC2_DEP
 /
 &NAMGEM
 /
 &NAMGFL
   YG_NL%LGP=.TRUE.,
   YG_NL%LPHY=.FALSE.,
   YG_NL%LREQOUT=.TRUE.,
   YG_NL%LT1=.TRUE.,
   YG_NL%NCOUPLING=1,
   YG_NL%NREQIN=1,
   YI_NL%LGP=.TRUE.,
   YI_NL%LGPINGP=.FALSE.,
   YI_NL%LPHY=.FALSE.,
   YI_NL%LREQOUT=.TRUE.,
   YI_NL%LT1=.TRUE.,
   YI_NL%NCOUPLING=1,
   YI_NL%NREQIN=1,
   YI_NL%REFVALI=0.,
   YL_NL%LGP=.TRUE.,
   YL_NL%LGPINGP=.FALSE.,
   YL_NL%LPHY=.FALSE.,
   YL_NL%LREQOUT=.TRUE.,
   YL_NL%LT1=.TRUE.,
   YL_NL%NCOUPLING=1,
   YL_NL%NREQIN=1,
   YL_NL%REFVALI=0.,
   YQ_NL%CNAME='HUMI.SPECIFI',
   YQ_NL%LGP=.TRUE.,
   YQ_NL%LREQOUT=.TRUE.,
   YQ_NL%LSP=.FALSE.,
   YQ_NL%NREQIN=1,
   YR_NL%LGP=.TRUE.,
   YR_NL%LGPINGP=.FALSE.,
   YR_NL%LPHY=.FALSE.,
   YR_NL%LREQOUT=.TRUE.,
   YR_NL%LT1=.TRUE.,
   YR_NL%NCOUPLING=1,
   YR_NL%NREQIN=1,
   YR_NL%REFVALI=0.,
   YS_NL%LGP=.TRUE.,
   YS_NL%LGPINGP=.FALSE.,
   YS_NL%LPHY=.FALSE.,
   YS_NL%LREQOUT=.TRUE.,
   YS_NL%LT1=.TRUE.,
   YS_NL%NCOUPLING=1,
   YS_NL%NREQIN=1,
   YS_NL%REFVALI=0.,
   YTKE_NL%LGP=.TRUE.,
   YTKE_NL%LGPINGP=.FALSE.,
   YTKE_NL%LREQOUT=.TRUE.,
   YTKE_NL%LT1=.TRUE.,
   YTKE_NL%NCOUPLING=1,
   YTKE_NL%NREQIN=1,
 /
 &NAMGRIB
 /
 &NAMGWD
 /
 &NAMGWDIAG
 /
 &NAMGWWMS
 /
 &NAMIAU
 /
 &NAMICE
 /
 &NAMINI
 /
 &NAMINTFLEX
 /
 &NAMIOMI
 /
 &NAMIOS
 /
 &NAMIO_SERV
 /
 &NAMJBCODES
 /
 &NAMJG
 /
 &NAMLCZ
 /
 &NAMLIMA
 /
 &NAMLSFORC
 /
 &NAMMARS
 /
 &NAMMCC
 /
 &NAMMCUF
 /
 &NAMMETHOX
 /
 &NAMMKODB
 /
 &NAMMODERR
 /
 &NAMMTS
 /
 &NAMMWAVE
 /
 &NAMNORGWD
 /
 &NAMNPROF
 /
 &NAMNUD
 /
 &NAMNUDGLH
 /
 &NAMOBS
   LCORGRADT=.TRUE.,
   LMKCMARPL=.FALSE.,
   LSLREJ=.TRUE.,
   L_F_SCR_WORK_TS=.FALSE.,
 /
 &NAMONEDVAR
 /
 &NAMOOPS
 /
 &NAMOPH
 /
 &NAMOPTCMEM
 /
 &NAMPAR0
   MBX_SIZE=2048000000,
   MP_TYPE=2,
   NOUTPUT=1,
   NPRGPEW=1,
   NPRGPNS='NBPROC',
   NPROC='NBPROC',
   NPRTRV=1,
   NPRTRW='NBPROC',
 /
 &NAMPAR1
   LEQ_REGIONS=.FALSE.,
   LSLONDEM=.FALSE.,
   LSPLIT=.FALSE.,
   NCOMBFLEN=1800000,
   NSTRIN='NBPROC',
   NSTROUT='NBPROC',
 /
 &NAMPARAR
 /
 &NAMPERTOBS
 /
 &NAMPERTPAR
 /
 &NAMPHMSE
   LPGDFWR=.FALSE.,
 /
 &NAMPHY
   LAERODES=.FALSE.,
   LAEROLAN=.FALSE.,
   LAEROSEA=.FALSE.,
   LAEROSOO=.FALSE.,
   LCONDWT=.FALSE.,
   LNEBN=.FALSE.,
   LO3ABC=.FALSE.,
   LVGSN=.FALSE.,
 /
 &NAMPHY0
   EDD=1.,
   EDK=1.,
   USURIC=0.175,
   USURICE=0.5,
   USURICL=1.,
   USURID=0.1,
 /
 &NAMPHY1
 /
 &NAMPHY2
   LRAFTUR=.FALSE.,
   XMULAF=0.,
 /
 &NAMPHY3
 /
 &NAMPHYDS
 /
 &NAMPPC
 /
 &NAMPPVI
 /
 &NAMPRE
   IPRSA(1,1)=1,2,3,4,
   IPRSA(1,2)=2,3,4,41,42,39,
   IPRSA(1,4)=29,58,
   IPRSA(1,5)=39,
   IPRSA(1,6)=58,
   IPRSA(1,7)=41,42,
   IPRSA(1,8)=80,92,
   IPRSA(1,9)=11,
   IPRSK(1,1)=1,3,4,
   IPRSK(1,2)=2,
   IPRSK(1,3)=29,
   IPRSK(1,4)=1,2,57,
   IPRSK(1,5)=11,
   IPRSK(1,6)=80,92,
   IPRSK(1,8)=39,
   IPRSK(1,9)=58,
   IPRSK(1,10)=41,42,
 /
 &NAMPSOT
 /
 &NAMRAD15
 /
 &NAMRADCMEM
 /
 &NAMRCF
 /
 &NAMRCOEF
 /
 &NAMRES
 /
 &NAMRGRI
 /
 &NAMRINC
 /
 &NAMRIP
   CSTOP='FCSTOP',
   TSTEP='TIMESTEP',
 /
 &NAMRIP0
 /
 &NAMRLX
 /
 &NAMSATS
 /
 &NAMSATSIM
 /
 &NAMSCC
 /
 &NAMSCEN
 /
 &NAMSCM
 /
 &NAMSEKF
 /
 &NAMSENS
 /
 &NAMSFXCMP
   CFLDNAME(1)='????????????????',
   NBBITS(1)=24,
 /
 &NAMSIMPHL
 /
 &NAMSPNG
 /
 &NAMSPP
 /
 &NAMSPSDT
 /
 &NAMSTA
 /
 &NAMSTOPH
 /
 &NAMSWE
 /
 &NAMTESTVAR
 /
 &NAMTHLIM
 /
 &NAMTOPH
 /
 &NAMTRAJ
 /
 &NAMTRAJP
 /
 &NAMTRANS
 /
 &NAMTRANS0
 /
 &NAMTS
 /
 &NAMVAR
   LWRIBVEC=.TRUE.,
 /
 &NAMVARBC
 /
 &NAMVARBC_AIREP
 /
 &NAMVARBC_ALLSKY
 /
 &NAMVARBC_GBRAD
 /
 &NAMVARBC_MODES
 /
 &NAMVARBC_RAD
 /
 &NAMVARBC_RSONDE
 /
 &NAMVARBC_SFCOBS
 /
 &NAMVARBC_TCWV
 /
 &NAMVARBC_TO3
 /
 &NAMVAREPS
 /
 &NAMVDF
 /
 &NAMVDOZ
 /
 &NAMVOLCANO
 /
 &NAMVRTL
 /
 &NAMVV0
 /
 &NAMVV1
 /
 &NAMVWRK
 /
 &NAMWAVELETJB
   WJBCONF%N_BGMEMBERS=__NBE__,
 /
 &NAMXFU
 /
 &NAM_ASSIM
 /
 &NAM_CANAPE
   REF_A_H2=100000.,
   REF_A_SST=200000.,
   REF_A_T2=100000.,
   REF_S_H2=0.1,
   REF_S_SST=0.8,
   REF_S_T2=1.6,
 /
 &NAM_DISTRIBUTED_VECTORS
 /
 &NAM_REPROD_OPER
 /
 &NAPHLC
 /
 &NEMCT0
 /
 &NEMDIM
 /
 &NEMDYN
 /
 &NEMELBC0A
   NECRIPL=0,
 /
 &NEMELBC0B
 /
 &NEMFPEZO
 /
 &NEMGEO
 /
 &NEMJK
 /
 &NEMVAR
 /
 &NEMWAVELET
 /
 &RADIATION
 /
