 &NAMDIM
   NPROMA=-16,
 /
 &NAMTRANS
   LFFTW=.TRUE.,
 /
