 &NAMDIM
   NCMAX=319,
   NDGLG=640,
   NDGUXG=629,
   NDLON=600,
   NDLUXG=589,
   NFLEVG=90,
   NIOLEVG=90,
   NMSMAX=299,
   NSMAX=319,
   NSTENCILWIDE=2,
   NVARMAX=299,
 /
 &NAMVV1
   DVALH(0)=0.,
   DVALH(1)=2718.281829,
   DVALH(2)=3747.089291,
   DVALH(3)=4915.58716,
   DVALH(4)=6184.629456,
   DVALH(5)=7511.826567,
   DVALH(6)=8869.101344,
   DVALH(7)=10030.304356,
   DVALH(8)=10981.652856,
   DVALH(9)=11785.441359,
   DVALH(10)=12467.115388,
   DVALH(11)=13036.9966,
   DVALH(12)=13504.534974,
   DVALH(13)=13878.638942,
   DVALH(14)=14167.467732,
   DVALH(15)=14378.164793,
   DVALH(16)=14516.624747,
   DVALH(17)=14587.358345,
   DVALH(18)=14595.755313,
   DVALH(19)=14546.696521,
   DVALH(20)=14444.613314,
   DVALH(21)=14293.673022,
   DVALH(22)=14097.987345,
   DVALH(23)=13861.830406,
   DVALH(24)=13589.853257,
   DVALH(25)=13287.281608,
   DVALH(26)=12960.083871,
   DVALH(27)=12612.25171,
   DVALH(28)=12247.287675,
   DVALH(29)=11868.24584,
   DVALH(30)=11477.7789,
   DVALH(31)=11078.188746,
   DVALH(32)=10671.478183,
   DVALH(33)=10259.401904,
   DVALH(34)=9843.515363,
   DVALH(35)=9425.220462,
   DVALH(36)=9005.8073,
   DVALH(37)=8586.491397,
   DVALH(38)=8168.695589,
   DVALH(39)=7753.760647,
   DVALH(40)=7342.954609,
   DVALH(41)=6937.48058,
   DVALH(42)=6538.483021,
   DVALH(43)=6147.052425,
   DVALH(44)=5764.228347,
   DVALH(45)=5391.000788,
   DVALH(46)=5028.309984,
   DVALH(47)=4677.04468,
   DVALH(48)=4338.03901,
   DVALH(49)=4012.068233,
   DVALH(50)=3699.843282,
   DVALH(51)=3402.004748,
   DVALH(52)=3119.007629,
   DVALH(53)=2851.141239,
   DVALH(54)=2598.537627,
   DVALH(55)=2361.182186,
   DVALH(56)=2138.926037,
   DVALH(57)=1931.499783,
   DVALH(58)=1738.528216,
   DVALH(59)=1559.545611,
   DVALH(60)=1394.01124,
   DVALH(61)=1241.32489,
   DVALH(62)=1100.841912,
   DVALH(63)=971.887912,
   DVALH(64)=853.7727,
   DVALH(65)=746.106511,
   DVALH(66)=648.446293,
   DVALH(67)=560.305239,
   DVALH(68)=481.162282,
   DVALH(69)=410.471379,
   DVALH(70)=347.670445,
   DVALH(71)=292.189811,
   DVALH(72)=243.460098,
   DVALH(73)=200.919421,
   DVALH(74)=164.01988,
   DVALH(75)=132.23327,
   DVALH(76)=105.05605,
   DVALH(77)=82.013496,
   DVALH(78)=62.744832,
   DVALH(79)=46.885714,
   DVALH(80)=34.071514,
   DVALH(81)=23.940739,
   DVALH(82)=16.138537,
   DVALH(83)=10.320302,
   DVALH(84)=6.155336,
   DVALH(85)=3.330576,
   DVALH(86)=1.554347,
   DVALH(87)=0.56013,
   DVALH(88)=0.110328,
   DVALH(89)=0.,
   DVALH(90)=0.,
   DVBH(0)=0.,
   DVBH(1)=0.,
   DVBH(2)=0.,
   DVBH(3)=0.,
   DVBH(4)=0.,
   DVBH(5)=0.,
   DVBH(6)=0.,
   DVBH(7)=0.0020808742,
   DVBH(8)=0.0063342307,
   DVBH(9)=0.0121732181,
   DVBH(10)=0.0193986154,
   DVBH(11)=0.0278371306,
   DVBH(12)=0.0373529653,
   DVBH(13)=0.047842939,
   DVBH(14)=0.0592352126,
   DVBH(15)=0.0714873482,
   DVBH(16)=0.0845746582,
   DVBH(17)=0.0983741718,
   DVBH(18)=0.1128383503,
   DVBH(19)=0.1279315334,
   DVBH(20)=0.14361854,
   DVBH(21)=0.1598595007,
   DVBH(22)=0.1766044735,
   DVBH(23)=0.1937879788,
   DVBH(24)=0.2113235966,
   DVBH(25)=0.2290987842,
   DVBH(26)=0.2469701004,
   DVBH(27)=0.2649022016,
   DVBH(28)=0.2828675957,
   DVBH(29)=0.3008456607,
   DVBH(30)=0.3188216081,
   DVBH(31)=0.3367854211,
   DVBH(32)=0.3547307961,
   DVBH(33)=0.372654106,
   DVBH(34)=0.3905533994,
   DVBH(35)=0.4084274461,
   DVBH(36)=0.4262748343,
   DVBH(37)=0.4440931265,
   DVBH(38)=0.4618674416,
   DVBH(39)=0.4795830255,
   DVBH(40)=0.49722498,
   DVBH(41)=0.5147780123,
   DVBH(42)=0.5322262004,
   DVBH(43)=0.5495527773,
   DVBH(44)=0.5667399335,
   DVBH(45)=0.5837686388,
   DVBH(46)=0.6006184839,
   DVBH(47)=0.6172675404,
   DVBH(48)=0.6336922407,
   DVBH(49)=0.6498672716,
   DVBH(50)=0.6657654933,
   DVBH(51)=0.6813578657,
   DVBH(52)=0.696619345,
   DVBH(53)=0.711528319,
   DVBH(54)=0.7260667007,
   DVBH(55)=0.7402199922,
   DVBH(56)=0.7539773233,
   DVBH(57)=0.7673314668,
   DVBH(58)=0.780278834,
   DVBH(59)=0.7928194542,
   DVBH(60)=0.804956941,
   DVBH(61)=0.8166984434,
   DVBH(62)=0.8280546004,
   DVBH(63)=0.839039477,
   DVBH(64)=0.849670505,
   DVBH(65)=0.8599386316,
   DVBH(66)=0.869836944,
   DVBH(67)=0.8793606592,
   DVBH(68)=0.8885071083,
   DVBH(69)=0.8972757162,
   DVBH(70)=0.9056679778,
   DVBH(71)=0.9136874321,
   DVBH(72)=0.9213396338,
   DVBH(73)=0.9286321259,
   DVBH(74)=0.9355744104,
   DVBH(75)=0.9421779224,
   DVBH(76)=0.948455999,
   DVBH(77)=0.9544238611,
   DVBH(78)=0.960072977,
   DVBH(79)=0.9653949126,
   DVBH(80)=0.9703813221,
   DVBH(81)=0.9750239392,
   DVBH(82)=0.9793145669,
   DVBH(83)=0.9832450676,
   DVBH(84)=0.9868073535,
   DVBH(85)=0.9899933762,
   DVBH(86)=0.9927951169,
   DVBH(87)=0.9952045769,
   DVBH(88)=0.9972137692,
   DVBH(89)=0.9988147073,
   DVBH(90)=1.,
   VVP00=101325.,
 /
 &NEMGEO
   EDELX=3200.,
   EDELY=3200.,
   ELAT0=46.7,
   ELATC=46.7,
   ELON0=2.,
   ELONC=2.,
   LMAP=.TRUE.,
   LMRT=.FALSE.,
 /
