 &NACIETEO
 /
 &NACOBS
 /
 &NACTAN
 /
 &NACTEX
 /
 &NACVEG
 /
 &NADOCK
 /
 &NAEAEM7
 /
 &NAEAER
 /
 &NAECOAPHY
 /
 &NAEPHLI
 /
 &NAEPHY
 /
 &NAERAD
 /
 &NAERCLI
 /
 &NAETLDIAG
 /
 &NAEVOL
 /
 &NAIMPO
 /
 &NALORI
 /
 &NAMACV
 /
 &NAMAERDET
 /
 &NAMAFN
 /
 &NAMARG
 /
 &NAMARPHY
 /
 &NAMCA
 /
 &NAMCAPE
 /
 &NAMCFU
 /
 &NAMCHEM
 /
 &NAMCHET
 /
 &NAMCHK
 /
 &NAMCLA
 /
 &NAMCLDP
 /
 &NAMCLI
 /
 &NAMCLOP15
 /
 &NAMCLTC
 /
 &NAMCMEM_MW
 /
 &NAMCOK
 /
 &NAMCOM
 /
 &NAMCOMPO
 /
 &NAMCOSJO
   LTC=.FALSE.,
   NOTVAR(1,1)=0,0,-1,-1,0,0,0,0,-1,-1,0,-1,-1,-1,-1,-1,-1,-1,-1,-1,-1,-1,-1,-1,-1,
   NOTVAR(1,2)=0,0,-1,-1,-1,-1,0,-1,-1,-1,-1,-1,-1,-1,-1,-1,-1,-1,-1,-1,-1,-1,-1,-1,-1,
   NOTVAR(1,3)=0,0,-1,-1,-1,-1,-1,-1,-1,-1,-1,-1,-1,-1,-1,-1,-1,-1,-1,-1,-1,-1,-1,-1,-1,
   NOTVAR(1,4)=0,0,-1,-1,-1,-1,-1,0,-1,-1,-1,-1,-1,-1,-1,-1,-1,-1,-1,-1,-1,-1,-1,-1,-1,
   NOTVAR(1,5)=0,0,-1,-1,-1,-1,0,-1,-1,-1,-1,-1,-1,-1,-1,-1,-1,-1,0,-1,-1,-1,-1,-1,-1,
   NOTVAR(1,6)=0,0,-1,-1,-1,-1,-1,-1,-1,-1,-1,-1,-1,-1,-1,-1,-1,-1,-1,-1,-1,-1,-1,-1,-1,
   NOTVAR(1,7)=-1,-1,-1,-1,-1,-1,-1,-1,-1,-1,-1,-1,0,-1,-1,-1,-1,-1,-1,-1,-1,-1,-1,-1,-1,
   NOTVAR(1,8)=-1,-1,-1,-1,-1,-1,-1,-1,-1,-1,-1,-1,-1,-1,-1,-1,-1,-1,-1,-1,-1,-1,-1,-1,-1,
   NOTVAR(1,9)=0,0,-1,-1,-1,-1,-1,-1,-1,-1,-1,-1,-1,-1,-1,-1,-1,-1,-1,-1,-1,-1,-1,-1,-1,
   NOTVAR(1,10)=-1,-1,-1,-1,-1,-1,-1,-1,-1,-1,-1,-1,-1,-1,-1,-1,-1,-1,-1,-1,-1,-1,-1,-1,-1,
   NOTVAR(1,13)=-1,-1,-1,-1,0,-1,0,0,-1,-1,-1,-1,-1,-1,-1,-1,-1,-1,-1,-1,-1,-1,-1,-1,-1,-1,0,0,0,0,0,0,0,0,0,0,0,0,0,0,0,0,0,0,
 /
 &NAMCOUPLO4
 /
 &NAMCT0
   LSUSPECA_GP=.TRUE.,
   LSUSPECA_GP_UV=.TRUE.,
 /
 &NAMCT1
 /
 &NAMCUMF
 /
 &NAMCUMFS
 /
 &NAMCVER
 /
 &NAMCVMNH
 /
 &NAMDDH
 /
 &NAMDFI
 /
 &NAMDIM
   NPROMA=-16,
 /
 &NAMDIMO
 /
 &NAMDIM_TRAJ
 /
 &NAMDPHY
 /
 &NAMDPRECIPS
 /
 &NAMDVISI
 /
 &NAMDYN
 /
 &NAMDYNA
 /
 &NAMDYNCORE
 /
 &NAMEMIS_CONF
   LUSE_TELSEM=.FALSE.,
 /
 &NAMENKF
 /
 &NAMENSCOV
 /
 &NAMFA
   YFAG='GRAUPEL',
   YFAI='ICE_CRYSTAL',
   YFAI%NBITS=12,
   YFAL='CLOUD_WATER',
   YFAL%NBITS=12,
   YFAR='RAIN',
   YFAR%NBITS=12,
   YFAS='SNOW',
   YFAS%NBITS=12,
 /
 &NAMFAINIT
 /
 &NAMFPC
 /
 &NAMFPD
 /
 &NAMFPDY2
 /
 &NAMFPDYF
 /
 &NAMFPDYH
 /
 &NAMFPDYI
 /
 &NAMFPDYP
 /
 &NAMFPDYS
 /
 &NAMFPDYT
 /
 &NAMFPDYV
 /
 &NAMFPF
 /
 &NAMFPG
 /
 &NAMFPIOS
 /
 &NAMFPMOVE
 /
 &NAMFPOBJ
 /
 &NAMFPPHY
 /
 &NAMFPSC2
   NFPROMA=-50,
 /
 &NAMFPSC2_DEP
   NFPROMA_DEP=-50,
 /
 &NAMGEM
 /
 &NAMGFL
 /
 &NAMGRIB
 /
 &NAMGWD
 /
 &NAMGWDIAG
 /
 &NAMGWWMS
 /
 &NAMIAU
 /
 &NAMICE
 /
 &NAMINI
 /
 &NAMINTFLEX
 /
 &NAMIOMI
   CFVATRA='VATRH',
   NMUPD=5,
 /
 &NAMIOS
 /
 &NAMIO_SERV
 /
 &NAMJBCODES
 /
 &NAMJG
   CONFIG%LFLTBGCALC_CRT=.FALSE.,
   CONFIG%LFLTBGCALC_GAUSS=.FALSE.,
   CONFIG%LFLTBGVARENS=.TRUE.,
   CONFIG%LFLTBGVARENS_STORE=.FALSE.,
   CONFIG%LGP_FLTBGCALC=.TRUE.,
   CONFIG%NFLEVTR=90,
   CONFIG%NSMAXT=149,
 /
 &NAMLCZ
 /
 &NAMLIMA
 /
 &NAMLSFORC
 /
 &NAMMARS
 /
 &NAMMCC
 /
 &NAMMCUF
 /
 &NAMMETHOX
 /
 &NAMMKODB
 /
 &NAMMODERR
 /
 &NAMMTS
 /
 &NAMMWAVE
 /
 &NAMNORGWD
 /
 &NAMNPROF
 /
 &NAMNUD
 /
 &NAMNUDGLH
 /
 &NAMOBS
   LCACHMT=.TRUE.,
   LCAPACH=.FALSE.,
   LMKCMARPL=.FALSE.,
   LSAATOPZTD=.TRUE.,
   L_F_SCR_WORK_TS=.FALSE.,
 /
 &NAMONEDVAR
 /
 &NAMOOPS
 /
 &NAMOPH
 /
 &NAMOPTCMEM
 /
 &NAMPAR0
 /
 &NAMPAR1
 /
 &NAMPARAR
 /
 &NAMPERTOBS
 /
 &NAMPERTPAR
 /
 &NAMPHMSE
 /
 &NAMPHY
   LAERODES=.TRUE.,
   LAEROLAN=.TRUE.,
   LAEROSEA=.TRUE.,
   LAEROSOO=.TRUE.,
   LBLVAR=.TRUE.,
   LNEBN=.FALSE.,
   LO3ABC=.TRUE.,
   LRAY=.FALSE.,
   LVGSN=.TRUE.,
 /
 &NAMPHY0
   EDK=5.,
   USURIC=0.175,
   USURICE=0.5,
   USURICL=1.,
   USURID=0.1,
 /
 &NAMPHY1
 /
 &NAMPHY2
 /
 &NAMPHY3
 /
 &NAMPHYDS
 /
 &NAMPPC
 /
 &NAMPPVI
 /
 &NAMPRE
 /
 &NAMPSOT
 /
 &NAMRAD15
 /
 &NAMRADCMEM
 /
 &NAMRCF
 /
 &NAMRCOEF
 /
 &NAMRES
 /
 &NAMRGRI
 /
 &NAMRINC
 /
 &NAMRIP
 /
 &NAMRIP0
 /
 &NAMRLX
 /
 &NAMSATS
   LCO2_DIAG_AIRS=.FALSE.,
   LCO2_DIAG_IASI=.FALSE.,
   LPARTIAL_COEF_FILES=.TRUE.,
   MEMIS_SW=1,
 /
 &NAMSATSIM
 /
 &NAMSCC
 /
 &NAMSCEN
 /
 &NAMSCM
 /
 &NAMSEKF
 /
 &NAMSENS
 /
 &NAMSFXCMP
 /
 &NAMSIMPHL
 /
 &NAMSPNG
 /
 &NAMSPP
 /
 &NAMSPSDT
 /
 &NAMSTA
 /
 &NAMSTOPH
 /
 &NAMSWE
 /
 &NAMTESTVAR
 /
 &NAMTHLIM
 /
 &NAMTOPH
 /
 &NAMTRAJ
   LREADGPTRAJ=.TRUE.,
   LTRAJGP=.TRUE.,
 /
 &NAMTRAJP
 /
 &NAMTRANS
   LFFTW=.TRUE.,
 /
 &NAMTRANS0
 /
 &NAMTS
 /
 &NAMVAR
   LANOBS=.FALSE.,
   LAVCGL=.TRUE.,
   LBACKGE=.FALSE.,
   LBACKGECV=.TRUE.,
   LBGOBS=.FALSE.,
   LCHRESINCR=.TRUE.,
   LCLDSINK=.FALSE.,
   LCONGRAD=.TRUE.,
   LDIAG_LCT=.FALSE.,
   LINITCV=.TRUE.,
   LJC=.FALSE.,
   LMPCGL=.FALSE.,
   LSTATMERR=.FALSE.,
   LTEST=.FALSE.,
   LTOVSCV=.FALSE.,
   LVARBC=.TRUE.,
   LWRISIGB=.FALSE.,
   L_ABS_CONVERGENCE=.FALSE.,
   L_CHECK_CONVERGENCE=.FALSE.,
   L_INFO_CONVERGENCE=.TRUE.,
   NFRANA=10000,
   NGRATS(0)=1,
   NGRATS(1)=1,
   NITER=1,
   NSIMU=60,
   NUPTRA=0,
   RCVGE=0.01,
 /
 &NAMVARBC
   LCONSTANT=.TRUE.,
 /
 &NAMVARBC_AIREP
   LBC_ACARS=.FALSE.,
   LBC_AIRCT=.FALSE.,
   LBC_AIREP=.FALSE.,
   LBC_AMDAR=.FALSE.,
   LBC_CODAR=.FALSE.,
   LBC_COLBA=.FALSE.,
 /
 &NAMVARBC_ALLSKY
 /
 &NAMVARBC_GBRAD
 /
 &NAMVARBC_MODES
 /
 &NAMVARBC_RAD
   LCLD_AIRS=.TRUE.,
   YCONFIG(3,3)%NCSTART=0,
 /
 &NAMVARBC_RSONDE
   LBC_RSONDE=.FALSE.,
 /
 &NAMVARBC_SFCOBS
   LBC_SFCOBS_APD=.TRUE.,
 /
 &NAMVARBC_TCWV
 /
 &NAMVARBC_TO3
 /
 &NAMVAREPS
 /
 &NAMVDF
 /
 &NAMVDOZ
 /
 &NAMVOLCANO
 /
 &NAMVRTL
   L131TL=.TRUE.,
   LOBSTL=.TRUE.,
 /
 &NAMVV0
 /
 &NAMVV1
 /
 &NAMVWRK
 /
 &NAMWAVELETJB
 /
 &NAMXFU
 /
 &NAM_ASSIM
 /
 &NAM_CANAPE
 /
 &NAM_DISTRIBUTED_VECTORS
 /
 &NAM_REPROD_OPER
 /
 &NAPHLC
 /
 &NEMCT0
 /
 &NEMDIM
 /
 &NEMDYN
 /
 &NEMELBC0A
 /
 &NEMELBC0B
 /
 &NEMFPEZO
 /
 &NEMGEO
 /
 &NEMJK
 /
 &NEMVAR
   ENIL1=300000.,
   ENIL2=500000.,
   ENILHBAL1=600000.,
   ENILHBAL2=1000000.,
   EVAREPSILON=0.01,
   EXPVAR=1.,
   LCORCOSU_AUTO=.FALSE.,
   LCORCOSU_HBAL=.FALSE.,
   LCORCOSU_STAT=.FALSE.,
   LEVARGP=.FALSE.,
   NBZONVAR_EW=20,
 /
 &NEMWAVELET
 /
 &RADIATION
 /
