 &NACIETEO
 /
 &NACOBS
 /
 &NACTAN
 /
 &NACTEX
   LAECDS=.FALSE.,
   LAECHK=.FALSE.,
   LAEH2M=.FALSE.,
   LAEHUM=.FALSE.,
   LAEICS=.FALSE.,
   LAEINC=.TRUE.,
   LAEOMF=.FALSE.,
   LAEOMN=.FALSE.,
   LAEPDS=.FALSE.,
   LAERFO=.FALSE.,
   LAESNM=.FALSE.,
   LAESST=.FALSE.,
   LAESTA=.FALSE.,
   LAESTU=.FALSE.,
   LAET2M=.FALSE.,
   LAEUPFLG=.FALSE.,
   LAEUVT=.FALSE.,
   LAEV1M=.FALSE.,
   LAEWIO=.TRUE.,
   NAEINC=0,
   NSEAICE=0,
   NSSTLIS=0,
   RCLIMCA=0.,
   RCLISST=0.,
   RWPIB=2.,
 /
 &NACVEG
 /
 &NADOCK
 /
 &NAEAEM7
 /
 &NAEAER
 /
 &NAECOAPHY
 /
 &NAEPHLI
 /
 &NAEPHY
 /
 &NAERAD
   LSRTM=.FALSE.,
 /
 &NAERCLI
 /
 &NAETLDIAG
 /
 &NAEVOL
 /
 &NAIMPO
 /
 &NALORI
 /
 &NAMACV
 /
 &NAMAERDET
 /
 &NAMAFN
 /
 &NAMARG
   CNMEXP='CEXP',
   LELAM=.FALSE.,
   LSLAG=.TRUE.,
   NCONF=701,
   NSUPERSEDE=1,
 /
 &NAMARPHY
 /
 &NAMCA
 /
 &NAMCAPE
 /
 &NAMCFU
 /
 &NAMCHEM
 /
 &NAMCHET
 /
 &NAMCHK
 /
 &NAMCLA
 /
 &NAMCLDP
 /
 &NAMCLI
 /
 &NAMCLOP15
 /
 &NAMCLTC
 /
 &NAMCMEM_MW
 /
 &NAMCOK
 /
 &NAMCOM
 /
 &NAMCOMPO
 /
 &NAMCOSJO
 /
 &NAMCOUPLO4
 /
 &NAMCT0
   LFDBOP=.FALSE.,
   LOBS=.FALSE.,
   LOLDPP=.FALSE.,
   NSPPR=1,
 /
 &NAMCT1
   LRFILAF=.FALSE.,
 /
 &NAMCUMF
 /
 &NAMCUMFS
 /
 &NAMCVER
 /
 &NAMCVMNH
 /
 &NAMDDH
 /
 &NAMDFI
 /
 &NAMDIM
   NPROMA=-16,
 /
 &NAMDIMO
 /
 &NAMDIM_TRAJ
 /
 &NAMDPHY
 /
 &NAMDPRECIPS
 /
 &NAMDVISI
 /
 &NAMDYN
   SIPR=100000.,
   SITR=350.,
   XIDT=0.,
 /
 &NAMDYNA
 /
 &NAMDYNCORE
 /
 &NAMEMIS_CONF
 /
 &NAMENKF
 /
 &NAMENSCOV
 /
 &NAMFA
   NBITCS=30,
   NBITPG=30,
 /
 &NAMFAINIT
 /
 &NAMFPC
 /
 &NAMFPD
 /
 &NAMFPDY2
 /
 &NAMFPDYF
 /
 &NAMFPDYH
 /
 &NAMFPDYI
 /
 &NAMFPDYP
 /
 &NAMFPDYS
 /
 &NAMFPDYT
 /
 &NAMFPDYV
 /
 &NAMFPF
 /
 &NAMFPG
 /
 &NAMFPIOS
 /
 &NAMFPMOVE
 /
 &NAMFPOBJ
 /
 &NAMFPPHY
 /
 &NAMFPSC2
 /
 &NAMFPSC2_DEP
 /
 &NAMGEM
 /
 &NAMGFL
   YI_NL%LGP=.TRUE.,
   YI_NL%LGPINGP=.FALSE.,
   YI_NL%LPHY=.FALSE.,
   YI_NL%LREQOUT=.TRUE.,
   YI_NL%LT1=.TRUE.,
   YI_NL%NREQIN=1,
   YL_NL%LGP=.TRUE.,
   YL_NL%LGPINGP=.FALSE.,
   YL_NL%LPHY=.FALSE.,
   YL_NL%LREQOUT=.TRUE.,
   YL_NL%LT1=.TRUE.,
   YL_NL%NREQIN=1,
   YR_NL%LGP=.TRUE.,
   YR_NL%LGPINGP=.FALSE.,
   YR_NL%LPHY=.FALSE.,
   YR_NL%LREQOUT=.TRUE.,
   YR_NL%LT1=.TRUE.,
   YR_NL%NREQIN=1,
   YS_NL%LGP=.TRUE.,
   YS_NL%LGPINGP=.FALSE.,
   YS_NL%LPHY=.FALSE.,
   YS_NL%LREQOUT=.TRUE.,
   YS_NL%LT1=.TRUE.,
   YS_NL%NREQIN=1,
   YTKE_NL%LGP=.TRUE.,
   YTKE_NL%LGPINGP=.TRUE.,
   YTKE_NL%LPHY=.FALSE.,
   YTKE_NL%LREQOUT=.TRUE.,
   YTKE_NL%LT1=.TRUE.,
   YTKE_NL%NREQIN=1,
 /
 &NAMGRIB
 /
 &NAMGWD
 /
 &NAMGWDIAG
 /
 &NAMGWWMS
 /
 &NAMIAU
 /
 &NAMICE
 /
 &NAMINI
 /
 &NAMINTFLEX
 /
 &NAMIOMI
 /
 &NAMIOS
 /
 &NAMIO_SERV
 /
 &NAMJBCODES
 /
 &NAMJG
 /
 &NAMLCZ
 /
 &NAMLIMA
 /
 &NAMLSFORC
 /
 &NAMMARS
 /
 &NAMMCC
 /
 &NAMMCUF
 /
 &NAMMETHOX
 /
 &NAMMKODB
 /
 &NAMMODERR
 /
 &NAMMTS
 /
 &NAMMWAVE
 /
 &NAMNORGWD
 /
 &NAMNPROF
 /
 &NAMNUD
 /
 &NAMNUDGLH
 /
 &NAMOBS
 /
 &NAMONEDVAR
 /
 &NAMOOPS
 /
 &NAMOPH
 /
 &NAMOPTCMEM
 /
 &NAMPAR0
   MBX_SIZE=2048000000,
   MP_TYPE=2,
   NOUTPUT=1,
   NPRGPEW=1,
   NPRGPNS='NBPROC',
   NPROC='NBPROC',
   NPRTRV=1,
   NPRTRW='NBPROC',
 /
 &NAMPAR1
   LEQ_REGIONS=.FALSE.,
   LSLONDEM=.TRUE.,
   LSPLIT=.FALSE.,
   NCOMBFLEN=1638400,
   NSTRIN='NBPROC',
   NSTROUT='NBPROC',
 /
 &NAMPARAR
 /
 &NAMPERTOBS
 /
 &NAMPERTPAR
 /
 &NAMPHMSE
 /
 &NAMPHY
   LAERODES=.TRUE.,
   LAEROLAN=.TRUE.,
   LAEROSEA=.TRUE.,
   LAEROSOO=.TRUE.,
   LCONDWT=.TRUE.,
   LFGEL=.TRUE.,
   LNEBN=.FALSE.,
   LO3ABC=.TRUE.,
   LSNV=.FALSE.,
   LSOLV=.TRUE.,
   LVGSN=.TRUE.,
 /
 &NAMPHY0
 /
 &NAMPHY1
 /
 &NAMPHY2
 /
 &NAMPHY3
 /
 &NAMPHYDS
 /
 &NAMPPC
 /
 &NAMPPVI
 /
 &NAMPRE
 /
 &NAMPSOT
 /
 &NAMRAD15
 /
 &NAMRADCMEM
 /
 &NAMRCF
 /
 &NAMRCOEF
 /
 &NAMRES
 /
 &NAMRGRI
 /
 &NAMRINC
 /
 &NAMRIP
   CSTOP='FCSTOP',
   TSTEP='TIMESTEP',
 /
 &NAMRIP0
 /
 &NAMRLX
 /
 &NAMSATS
 /
 &NAMSATSIM
 /
 &NAMSCC
 /
 &NAMSCEN
 /
 &NAMSCM
 /
 &NAMSEKF
 /
 &NAMSENS
 /
 &NAMSFXCMP
 /
 &NAMSIMPHL
 /
 &NAMSPNG
 /
 &NAMSPP
 /
 &NAMSPSDT
 /
 &NAMSTA
 /
 &NAMSTOPH
 /
 &NAMSWE
 /
 &NAMTESTVAR
 /
 &NAMTHLIM
 /
 &NAMTOPH
 /
 &NAMTRAJ
 /
 &NAMTRAJP
 /
 &NAMTRANS
 /
 &NAMTRANS0
 /
 &NAMTS
 /
 &NAMVAR
 /
 &NAMVARBC
 /
 &NAMVARBC_AIREP
 /
 &NAMVARBC_ALLSKY
 /
 &NAMVARBC_GBRAD
 /
 &NAMVARBC_MODES
 /
 &NAMVARBC_RAD
 /
 &NAMVARBC_RSONDE
 /
 &NAMVARBC_SFCOBS
 /
 &NAMVARBC_TCWV
 /
 &NAMVARBC_TO3
 /
 &NAMVAREPS
 /
 &NAMVDF
 /
 &NAMVDOZ
 /
 &NAMVOLCANO
 /
 &NAMVRTL
 /
 &NAMVV0
 /
 &NAMVV1
 /
 &NAMVWRK
 /
 &NAMWAVELETJB
 /
 &NAMXFU
 /
 &NAM_ASSIM
 /
 &NAM_CANAPE
 /
 &NAM_DISTRIBUTED_VECTORS
 /
 &NAM_REPROD_OPER
 /
 &NAPHLC
 /
 &NEMCT0
 /
 &NEMDIM
 /
 &NEMDYN
 /
 &NEMELBC0A
 /
 &NEMELBC0B
 /
 &NEMFPEZO
 /
 &NEMGEO
 /
 &NEMJK
 /
 &NEMVAR
 /
 &NEMWAVELET
 /
 &RADIATION
 /
