 &NAMFPD
   NFPRLX=1,
   NFPRLY=3,
   NFPRUX=2,
   NFPRUY=2,
   NLAT(1)=717,
   NLAT(2)=1791,
   NLON(1)=1121,
   NLON(2)=2801,
   RDELX(1)=0.025,
   RDELX(2)=0.01,
   RDELY(1)=0.025,
   RDELY(2)=0.01,
   RLATC(1)=46.45,
   RLATC(2)=46.45,
   RLONC(1)=2.,
   RLONC(2)=2.,
 /
 &NAMFPF
   NFMAX(1)=60,
   NFMAX(2)=80,
 /
 &NAMFPSC2
   NFPROMA=-48,
 /
 &NAMFPSC2_DEP
   NFPROMA_DEP=-48,
 /
