 &NAMFPC
   LFPCAPEX=.TRUE.,
   NFPCLI=1,
 /
