 &NAMFPC
   CFP2DF(1)='SURFPRESSION',
   CFP2DF(2)='SPECSURFGEOPOTENTIEL',
   CFP2DF(3)='CUF1PRESSURE',
   CFP3DF(1)='TEMPERATURE',
   CFP3DF(2)='WIND.U.PHYS',
   CFP3DF(3)='WIND.V.PHYS',
   CFP3DF(4)='HUMI.SPECIFIQUE',
   CFPDIR='./belgique7km/PF',
   CFPDOM(1)='BELGIQUE',
   CFPFMT='LELAM',
   CFPMONIPATH_IN='./belgique7km',
   CFPMONIPATH_OUT='./belgique7km',
   CFPPHY(1)='SURFTEMPERATURE',
   CFPPHY(2)='PROFTEMPERATURE',
   CFPPHY(3)='PROFRESERV.EAU',
   CFPPHY(4)='SURFRESERV.NEIGE',
   CFPPHY(5)='SURFRESERV.EAU',
   CFPPHY(6)='SURFZ0.FOIS.G',
   CFPPHY(7)='SURFALBEDO',
   CFPPHY(8)='SURFEMISSIVITE',
   CFPPHY(9)='SURFET.GEOPOTENT',
   CFPPHY(10)='SURFIND.TERREMER',
   CFPPHY(11)='SURFPROP.VEGETAT',
   CFPPHY(12)='SURFVAR.GEOP.ANI',
   CFPPHY(13)='SURFVAR.GEOP.DIR',
   CFPPHY(14)='SURFIND.VEG.DOMI',
   CFPPHY(15)='SURFRESI.STO.MIN',
   CFPPHY(16)='SURFPROP.ARGILE',
   CFPPHY(17)='SURFPROP.SABLE',
   CFPPHY(18)='SURFEPAIS.SOL',
   CFPPHY(19)='SURFIND.FOLIAIRE',
   CFPPHY(20)='SURFRES.EVAPOTRA',
   CFPPHY(21)='SURFGZ0.THERM',
   CFPPHY(22)='SURFRESERV.INTER',
   CFPPHY(23)='PROFRESERV.GLACE',
   CFPPHY(24)='SURFRESERV.GLACE',
   CFPPHY(25)='SURFDENSIT.NEIGE',
   CFPPHY(26)='SURFALBEDO NEIGE',
   CFPPHY(27)='SURFALBEDO.SOLNU',
   CFPPHY(28)='SURFALBEDO.VEG',
   CFPPHY(29)='SURFA.OF.OZONE  ',
   CFPPHY(30)='SURFB.OF.OZONE  ',
   CFPPHY(31)='SURFC.OF.OZONE  ',
   CFPPHY(32)='SURFAEROS.SEA   ',
   CFPPHY(33)='SURFAEROS.LAND  ',
   CFPPHY(34)='SURFAEROS.SOOT  ',
   CFPPHY(35)='SURFAEROS.DESERT',
   LFPQ=.FALSE.,
   NFPCLI=2,
   NRFP3S=1,2,3,4,5,6,7,8,9,10,11,12,13,14,15,16,17,18,19,20,21,22,23,24,25,26,27,28,29,30,31,32,33,34,35,36,37,38,39,40,41,42,43,44,45,46,47,48,49,50,51,52,53,54,55,56,57,58,59,60,61,62,63,64,65,66,67,68,69,70,71,72,73,74,75,76,77,78,79,80,81,82,83,84,85,86,87,88,89,90,91,92,93,94,95,96,97,98,99,100,101,102,103,104,105,
   RSNSTPX=275,
   RWPITPX=278,
 /
 &NAMFPD
   NFPGUX=475,
   NFPLUX=313,
   NLAT=486,
   NLON=324,
   RDELX(1)=7000.,
   RDELY(1)=7000.,
   RLATC(1)=58.,
   RLONC(1)=0.,
 /
 &NAMFPG
   FPLAT0=50.5,
   FPLON0=4.5,
   FPVALH(0)=0.,20.,30.090025,44.572584,64.862853,93.11036,132.443415,187.540847,263.803409,367.681628,506.562941,688.379537,920.841495,1207.504334,1549.811942,1947.242091,2396.523587,2892.311629,3428.502654,4000.087536,4605.377487,5248.462839,5920.02418,6608.294616,7236.061176,7792.441411,8292.171332,8741.11759,9144.692989,9509.064444,9841.338321,10149.436497,10441.847013,10727.28427,11003.466937,11268.282784,11519.80686,11756.310398,11976.258144,12178.292055,12361.199951,12523.867862,12665.214963,12784.110087,12879.268531,12949.055489,12991.407395,13004.479244,12986.798662,12937.181627,12854.715474,12738.733346,12588.781134,12404.578371,12185.974885,11932.905392,11645.344488,11323.264783,10966.601281,10575.225505,10148.933445,9690.688099,9204.264959,8694.162862,8165.485137,7623.795672,7074.956264,6524.952425,5979.716158,5444.953671,4925.986017,4427.609547,3953.981768,3508.536674,3093.931477,2711.535759,2361.946534,2045.056135,1760.138341,1505.946545,1280.85569,1082.953198,910.128593,760.156637,630.868213,520.135633,425.907991,346.238826,279.306705,223.429418,177.072555,138.853271,107.540044,82.049275,61.52002,45.184675,32.364768,22.465942,14.972363,9.440748,5.494191,2.815962,1.143396,0.262019,0.,0.,
   FPVBH(0)=0.,0.,0.,0.,0.,0.,0.,0.,0.,0.,0.,0.,0.,0.,0.,0.,0.,0.,0.,0.,0.,0.,0.,0.,0.0006583614,0.0019866155,0.0037586329,0.005859263,0.0082085507,0.0107558012,0.0134825104,0.0164075393,0.0195935371,0.0231554825,0.0271081824,0.0314653107,0.0362398827,0.0414449575,0.0470945886,0.0532050399,0.0597962823,0.0668937902,0.0745306536,0.0827500364,0.0916080249,0.1011642928,0.1114385264,0.1224324165,0.1341542901,0.1466112016,0.1598096637,0.1737565294,0.1884600042,0.2039307776,0.2201832544,0.2372368657,0.2551174387,0.2738586045,0.2935032234,0.3141048054,0.3357289042,0.3582970605,0.3817170714,0.405883804,0.4306804128,0.455979918,0.4816470768,0.5075404867,0.5335148193,0.5594231111,0.5851190222,0.6104589853,0.6353041816,0.6595222851,0.6829889557,0.7056187317,0.7273414649,0.7481027784,0.767864256,0.7866034114,0.8043104125,0.8209878455,0.8366502626,0.8513236885,0.8650344412,0.8778133401,0.889695232,0.9007185732,0.9109250642,0.9203593338,0.9290686684,0.9371027834,0.9445136304,0.9513552345,0.9576569759,0.9634485922,0.9687601101,0.9736217877,0.9780640672,0.9821175362,0.9858128963,0.9891809376,0.9922525186,0.9950585503,0.9976299837,1.,
   NFPLEV=105,
   NFPMAX=161,
   NMFPMAX=107,
 /
