 &NAMFPC
   LFPQ=.FALSE.,
   NFPCLI=2,
   RSNSTPX=275.,
   RWPITPX=278.,
 /
 &NAMFPSC2
   NFPROMA=-16,
 /
 &NAMFPSC2_DEP
   NFPROMA_DEP=-16,
 /
