 &NAMFPC
   YRFPEDRD%EDRDCH%CLNAME='EDRDCH.ENS',
   YRFPEDRD%EDRDCL%CLNAME='EDRDCL.ENS',
   YRFPEDRD%EDRDCM%CLNAME='EDRDCM.ENS',
   YRFPEDRD%TI1H%CLNAME='CAT.TI1.H.ENS',
   YRFPEDRD%TI1M%CLNAME='CAT.TI1.M.ENS',
 /
