 &NAMFPC
   RFP3H(1)=10.,
   RFP3H(2)=20.,
   RFP3H(3)=35.,
   RFP3H(4)=50.,
   RFP3H(5)=75.,
   RFP3H(6)=100.,
   RFP3H(7)=150.,
   RFP3H(8)=200.,
   RFP3H(9)=250.,
   RFP3H(10)=375.,
   RFP3H(11)=500.,
   RFP3H(12)=625.,
   RFP3H(13)=750.,
   RFP3H(14)=875.,
   RFP3H(15)=1000.,
   RFP3H(16)=1125.,
   RFP3H(17)=1250.,
   RFP3H(18)=1375.,
   RFP3H(19)=1500.,
   RFP3H(20)=1750.,
   RFP3H(21)=2000.,
   RFP3H(22)=2250.,
   RFP3H(23)=2500.,
   RFP3H(24)=2750.,
   RFP3H(25)=3000.,
 /
