 &NAMFPC
   CFPDIR='PF',
   CFPDOM(1)='GUYANE',
   CFPFMT='GAUSS',
   CFPPHY(1)='SURFTEMPERATURE',
   CFPPHY(2)='PROFTEMPERATURE',
   CFPPHY(3)='SURFRESERV.EAU',
   CFPPHY(4)='PROFRESERV.EAU',
   CFPPHY(5)='PROFRESERV.GLACE',
   CFPPHY(6)='SURFRESERV.GLACE',
   CFPPHY(7)='SURFRESERV.NEIGE',
   CFPPHY(8)='SURFPROP.ARGILE',
   CFPPHY(9)='SURFPROP.SABLE',
   CFPPHY(10)='SURFEPAIS.SOL',
   CFPPHY(11)='SURFGEOPOTENTIEL',
   CFPPHY(12)='SURFIND.TERREMER',
   CFPPHY(13)='SEASURFTEMPERATU',
   LTRACEFP=.TRUE.,
   NFPCLI=0,
   NFPMASK=2,
   NFPSURFEX=1,
 /
 &NAMFPD
   NLAT=1200,
   NLON=2400,
 /
 &NAMFPG
   FPLOCEN=0.045,
   FPMUCEN=0.725,
   FPNLGINC=0.,
   FPSTRET=2.2,
   FPVALH(0)=0.,20.,30.090025,44.572584,64.862853,93.11036,132.443415,187.540847,263.803409,367.681628,506.562941,688.379537,920.841495,1207.504334,1549.811942,1947.242091,2396.523587,2892.311629,3428.502654,4000.087536,4605.377487,5248.462839,5920.02418,6608.294616,7236.061176,7792.441411,8292.171332,8741.11759,9144.692989,9509.064444,9841.338321,10149.436497,10441.847013,10727.28427,11003.466937,11268.282784,11519.80686,11756.310398,11976.258144,12178.292055,12361.199951,12523.867862,12665.214963,12784.110087,12879.268531,12949.055489,12991.407395,13004.479244,12986.798662,12937.181627,12854.715474,12738.733346,12588.781134,12404.578371,12185.974885,11932.905392,11645.344488,11323.264783,10966.601281,10575.225505,10148.933445,9690.688099,9204.264959,8694.162862,8165.485137,7623.795672,7074.956264,6524.952425,5979.716158,5444.953671,4925.986017,4427.609547,3953.981768,3508.536674,3093.931477,2711.535759,2361.946534,2045.056135,1760.138341,1505.946545,1280.85569,1082.953198,910.128593,760.156637,630.868213,520.135633,425.907991,346.238826,279.306705,223.429418,177.072555,138.853271,107.540044,82.049275,61.52002,45.184675,32.364768,22.465942,14.972363,9.440748,5.494191,2.815962,1.143396,0.262019,0.,0.,
   FPVBH(0)=0.,0.,0.,0.,0.,0.,0.,0.,0.,0.,0.,0.,0.,0.,0.,0.,0.,0.,0.,0.,0.,0.,0.,0.,0.0006583614,0.0019866155,0.0037586329,0.005859263,0.0082085507,0.0107558012,0.0134825104,0.0164075393,0.0195935371,0.0231554825,0.0271081824,0.0314653107,0.0362398827,0.0414449575,0.0470945886,0.0532050399,0.0597962823,0.0668937902,0.0745306536,0.0827500364,0.0916080249,0.1011642928,0.1114385264,0.1224324165,0.1341542901,0.1466112016,0.1598096637,0.1737565294,0.1884600042,0.2039307776,0.2201832544,0.2372368657,0.2551174387,0.2738586045,0.2935032234,0.3141048054,0.3357289042,0.3582970605,0.3817170714,0.405883804,0.4306804128,0.455979918,0.4816470768,0.5075404867,0.5335148193,0.5594231111,0.5851190222,0.6104589853,0.6353041816,0.6595222851,0.6829889557,0.7056187317,0.7273414649,0.7481027784,0.767864256,0.7866034114,0.8043104125,0.8209878455,0.8366502626,0.8513236885,0.8650344412,0.8778133401,0.889695232,0.9007185732,0.9109250642,0.9203593338,0.9290686684,0.9371027834,0.9445136304,0.9513552345,0.9576569759,0.9634485922,0.9687601101,0.9736217877,0.9780640672,0.9821175362,0.9858128963,0.9891809376,0.9922525186,0.9950585503,0.9976299837,1.,
   NFPHTYP=2,
   NFPLEV=105,
   NFPMAX=1198,
   NFPRGRI(  1)=18,
   NFPRGRI(  2)=30,
   NFPRGRI(  3)=32,
   NFPRGRI(  4)=40,
   NFPRGRI(  5)=48,
   NFPRGRI(  6)=60,
   NFPRGRI(  7)=64,
   NFPRGRI(  8)=72,
   NFPRGRI(  9)=80,
   NFPRGRI( 10)=90,
   NFPRGRI( 11)=96,
   NFPRGRI( 12)=100,
   NFPRGRI( 13)=108,
   NFPRGRI( 14)=120,
   NFPRGRI( 15)=120,
   NFPRGRI( 16)=128,
   NFPRGRI( 17)=144,
   NFPRGRI( 18)=144,
   NFPRGRI( 19)=150,
   NFPRGRI( 20)=160,
   NFPRGRI( 21)=160,
   NFPRGRI( 22)=180,
   NFPRGRI( 23)=180,
   NFPRGRI( 24)=180,
   NFPRGRI( 25)=192,
   NFPRGRI( 26)=200,
   NFPRGRI( 27)=200,
   NFPRGRI( 28)=216,
   NFPRGRI( 29)=216,
   NFPRGRI( 30)=240,
   NFPRGRI( 31)=240,
   NFPRGRI( 32)=240,
   NFPRGRI( 33)=240,
   NFPRGRI( 34)=250,
   NFPRGRI( 35)=256,
   NFPRGRI( 36)=270,
   NFPRGRI( 37)=270,
   NFPRGRI( 38)=288,
   NFPRGRI( 39)=288,
   NFPRGRI( 40)=288,
   NFPRGRI( 41)=300,
   NFPRGRI( 42)=300,
   NFPRGRI( 43)=320,
   NFPRGRI( 44)=320,
   NFPRGRI( 45)=320,
   NFPRGRI( 46)=360,
   NFPRGRI( 47)=360,
   NFPRGRI( 48)=360,
   NFPRGRI( 49)=360,
   NFPRGRI( 50)=360,
   NFPRGRI( 51)=360,
   NFPRGRI( 52)=384,
   NFPRGRI( 53)=384,
   NFPRGRI( 54)=384,
   NFPRGRI( 55)=400,
   NFPRGRI( 56)=400,
   NFPRGRI( 57)=400,
   NFPRGRI( 58)=432,
   NFPRGRI( 59)=432,
   NFPRGRI( 60)=432,
   NFPRGRI( 61)=432,
   NFPRGRI( 62)=432,
   NFPRGRI( 63)=450,
   NFPRGRI( 64)=450,
   NFPRGRI( 65)=450,
   NFPRGRI( 66)=480,
   NFPRGRI( 67)=480,
   NFPRGRI( 68)=480,
   NFPRGRI( 69)=480,
   NFPRGRI( 70)=486,
   NFPRGRI( 71)=500,
   NFPRGRI( 72)=500,
   NFPRGRI( 73)=500,
   NFPRGRI( 74)=512,
   NFPRGRI( 75)=512,
   NFPRGRI( 76)=540,
   NFPRGRI( 77)=540,
   NFPRGRI( 78)=540,
   NFPRGRI( 79)=540,
   NFPRGRI( 80)=576,
   NFPRGRI( 81)=576,
   NFPRGRI( 82)=576,
   NFPRGRI( 83)=576,
   NFPRGRI( 84)=576,
   NFPRGRI( 85)=600,
   NFPRGRI( 86)=600,
   NFPRGRI( 87)=600,
   NFPRGRI( 88)=600,
   NFPRGRI( 89)=640,
   NFPRGRI( 90)=640,
   NFPRGRI( 91)=640,
   NFPRGRI( 92)=640,
   NFPRGRI( 93)=640,
   NFPRGRI( 94)=640,
   NFPRGRI( 95)=640,
   NFPRGRI( 96)=648,
   NFPRGRI( 97)=720,
   NFPRGRI( 98)=720,
   NFPRGRI( 99)=720,
   NFPRGRI(100)=720,
   NFPRGRI(101)=720,
   NFPRGRI(102)=720,
   NFPRGRI(103)=720,
   NFPRGRI(104)=720,
   NFPRGRI(105)=720,
   NFPRGRI(106)=720,
   NFPRGRI(107)=720,
   NFPRGRI(108)=750,
   NFPRGRI(109)=750,
   NFPRGRI(110)=750,
   NFPRGRI(111)=750,
   NFPRGRI(112)=750,
   NFPRGRI(113)=768,
   NFPRGRI(114)=768,
   NFPRGRI(115)=768,
   NFPRGRI(116)=800,
   NFPRGRI(117)=800,
   NFPRGRI(118)=800,
   NFPRGRI(119)=800,
   NFPRGRI(120)=800,
   NFPRGRI(121)=800,
   NFPRGRI(122)=810,
   NFPRGRI(123)=864,
   NFPRGRI(124)=864,
   NFPRGRI(125)=864,
   NFPRGRI(126)=864,
   NFPRGRI(127)=864,
   NFPRGRI(128)=864,
   NFPRGRI(129)=864,
   NFPRGRI(130)=864,
   NFPRGRI(131)=864,
   NFPRGRI(132)=900,
   NFPRGRI(133)=900,
   NFPRGRI(134)=900,
   NFPRGRI(135)=900,
   NFPRGRI(136)=900,
   NFPRGRI(137)=900,
   NFPRGRI(138)=960,
   NFPRGRI(139)=960,
   NFPRGRI(140)=960,
   NFPRGRI(141)=960,
   NFPRGRI(142)=960,
   NFPRGRI(143)=960,
   NFPRGRI(144)=960,
   NFPRGRI(145)=960,
   NFPRGRI(146)=960,
   NFPRGRI(147)=960,
   NFPRGRI(148)=972,
   NFPRGRI(149)=972,
   NFPRGRI(150)=1000,
   NFPRGRI(151)=1000,
   NFPRGRI(152)=1000,
   NFPRGRI(153)=1000,
   NFPRGRI(154)=1000,
   NFPRGRI(155)=1024,
   NFPRGRI(156)=1024,
   NFPRGRI(157)=1024,
   NFPRGRI(158)=1024,
   NFPRGRI(159)=1080,
   NFPRGRI(160)=1080,
   NFPRGRI(161)=1080,
   NFPRGRI(162)=1080,
   NFPRGRI(163)=1080,
   NFPRGRI(164)=1080,
   NFPRGRI(165)=1080,
   NFPRGRI(166)=1080,
   NFPRGRI(167)=1080,
   NFPRGRI(168)=1080,
   NFPRGRI(169)=1152,
   NFPRGRI(170)=1152,
   NFPRGRI(171)=1152,
   NFPRGRI(172)=1152,
   NFPRGRI(173)=1152,
   NFPRGRI(174)=1152,
   NFPRGRI(175)=1152,
   NFPRGRI(176)=1152,
   NFPRGRI(177)=1152,
   NFPRGRI(178)=1152,
   NFPRGRI(179)=1152,
   NFPRGRI(180)=1152,
   NFPRGRI(181)=1200,
   NFPRGRI(182)=1200,
   NFPRGRI(183)=1200,
   NFPRGRI(184)=1200,
   NFPRGRI(185)=1200,
   NFPRGRI(186)=1200,
   NFPRGRI(187)=1200,
   NFPRGRI(188)=1200,
   NFPRGRI(189)=1200,
   NFPRGRI(190)=1250,
   NFPRGRI(191)=1250,
   NFPRGRI(192)=1250,
   NFPRGRI(193)=1250,
   NFPRGRI(194)=1250,
   NFPRGRI(195)=1250,
   NFPRGRI(196)=1250,
   NFPRGRI(197)=1250,
   NFPRGRI(198)=1250,
   NFPRGRI(199)=1280,
   NFPRGRI(200)=1280,
   NFPRGRI(201)=1280,
   NFPRGRI(202)=1280,
   NFPRGRI(203)=1280,
   NFPRGRI(204)=1296,
   NFPRGRI(205)=1296,
   NFPRGRI(206)=1296,
   NFPRGRI(207)=1350,
   NFPRGRI(208)=1350,
   NFPRGRI(209)=1350,
   NFPRGRI(210)=1350,
   NFPRGRI(211)=1350,
   NFPRGRI(212)=1350,
   NFPRGRI(213)=1350,
   NFPRGRI(214)=1350,
   NFPRGRI(215)=1350,
   NFPRGRI(216)=1350,
   NFPRGRI(217)=1440,
   NFPRGRI(218)=1440,
   NFPRGRI(219)=1440,
   NFPRGRI(220)=1440,
   NFPRGRI(221)=1440,
   NFPRGRI(222)=1440,
   NFPRGRI(223)=1440,
   NFPRGRI(224)=1440,
   NFPRGRI(225)=1440,
   NFPRGRI(226)=1440,
   NFPRGRI(227)=1440,
   NFPRGRI(228)=1440,
   NFPRGRI(229)=1440,
   NFPRGRI(230)=1440,
   NFPRGRI(231)=1440,
   NFPRGRI(232)=1440,
   NFPRGRI(233)=1440,
   NFPRGRI(234)=1458,
   NFPRGRI(235)=1458,
   NFPRGRI(236)=1458,
   NFPRGRI(237)=1458,
   NFPRGRI(238)=1500,
   NFPRGRI(239)=1500,
   NFPRGRI(240)=1500,
   NFPRGRI(241)=1500,
   NFPRGRI(242)=1500,
   NFPRGRI(243)=1500,
   NFPRGRI(244)=1500,
   NFPRGRI(245)=1500,
   NFPRGRI(246)=1536,
   NFPRGRI(247)=1536,
   NFPRGRI(248)=1536,
   NFPRGRI(249)=1536,
   NFPRGRI(250)=1536,
   NFPRGRI(251)=1536,
   NFPRGRI(252)=1536,
   NFPRGRI(253)=1600,
   NFPRGRI(254)=1600,
   NFPRGRI(255)=1600,
   NFPRGRI(256)=1600,
   NFPRGRI(257)=1600,
   NFPRGRI(258)=1600,
   NFPRGRI(259)=1600,
   NFPRGRI(260)=1600,
   NFPRGRI(261)=1600,
   NFPRGRI(262)=1600,
   NFPRGRI(263)=1600,
   NFPRGRI(264)=1600,
   NFPRGRI(265)=1600,
   NFPRGRI(266)=1600,
   NFPRGRI(267)=1620,
   NFPRGRI(268)=1620,
   NFPRGRI(269)=1620,
   NFPRGRI(270)=1620,
   NFPRGRI(271)=1728,
   NFPRGRI(272)=1728,
   NFPRGRI(273)=1728,
   NFPRGRI(274)=1728,
   NFPRGRI(275)=1728,
   NFPRGRI(276)=1728,
   NFPRGRI(277)=1728,
   NFPRGRI(278)=1728,
   NFPRGRI(279)=1728,
   NFPRGRI(280)=1728,
   NFPRGRI(281)=1728,
   NFPRGRI(282)=1728,
   NFPRGRI(283)=1728,
   NFPRGRI(284)=1728,
   NFPRGRI(285)=1728,
   NFPRGRI(286)=1728,
   NFPRGRI(287)=1728,
   NFPRGRI(288)=1728,
   NFPRGRI(289)=1728,
   NFPRGRI(290)=1728,
   NFPRGRI(291)=1728,
   NFPRGRI(292)=1728,
   NFPRGRI(293)=1728,
   NFPRGRI(294)=1800,
   NFPRGRI(295)=1800,
   NFPRGRI(296)=1800,
   NFPRGRI(297)=1800,
   NFPRGRI(298)=1800,
   NFPRGRI(299)=1800,
   NFPRGRI(300)=1800,
   NFPRGRI(301)=1800,
   NFPRGRI(302)=1800,
   NFPRGRI(303)=1800,
   NFPRGRI(304)=1800,
   NFPRGRI(305)=1800,
   NFPRGRI(306)=1800,
   NFPRGRI(307)=1800,
   NFPRGRI(308)=1800,
   NFPRGRI(309)=1800,
   NFPRGRI(310)=1920,
   NFPRGRI(311)=1920,
   NFPRGRI(312)=1920,
   NFPRGRI(313)=1920,
   NFPRGRI(314)=1920,
   NFPRGRI(315)=1920,
   NFPRGRI(316)=1920,
   NFPRGRI(317)=1920,
   NFPRGRI(318)=1920,
   NFPRGRI(319)=1920,
   NFPRGRI(320)=1920,
   NFPRGRI(321)=1920,
   NFPRGRI(322)=1920,
   NFPRGRI(323)=1920,
   NFPRGRI(324)=1920,
   NFPRGRI(325)=1920,
   NFPRGRI(326)=1920,
   NFPRGRI(327)=1920,
   NFPRGRI(328)=1920,
   NFPRGRI(329)=1920,
   NFPRGRI(330)=1920,
   NFPRGRI(331)=1920,
   NFPRGRI(332)=1920,
   NFPRGRI(333)=1920,
   NFPRGRI(334)=1920,
   NFPRGRI(335)=1920,
   NFPRGRI(336)=1920,
   NFPRGRI(337)=1920,
   NFPRGRI(338)=1920,
   NFPRGRI(339)=1920,
   NFPRGRI(340)=1944,
   NFPRGRI(341)=1944,
   NFPRGRI(342)=1944,
   NFPRGRI(343)=1944,
   NFPRGRI(344)=1944,
   NFPRGRI(345)=1944,
   NFPRGRI(346)=2000,
   NFPRGRI(347)=2000,
   NFPRGRI(348)=2000,
   NFPRGRI(349)=2000,
   NFPRGRI(350)=2000,
   NFPRGRI(351)=2000,
   NFPRGRI(352)=2000,
   NFPRGRI(353)=2000,
   NFPRGRI(354)=2000,
   NFPRGRI(355)=2000,
   NFPRGRI(356)=2000,
   NFPRGRI(357)=2000,
   NFPRGRI(358)=2000,
   NFPRGRI(359)=2000,
   NFPRGRI(360)=2000,
   NFPRGRI(361)=2048,
   NFPRGRI(362)=2048,
   NFPRGRI(363)=2048,
   NFPRGRI(364)=2048,
   NFPRGRI(365)=2048,
   NFPRGRI(366)=2048,
   NFPRGRI(367)=2048,
   NFPRGRI(368)=2048,
   NFPRGRI(369)=2048,
   NFPRGRI(370)=2048,
   NFPRGRI(371)=2048,
   NFPRGRI(372)=2048,
   NFPRGRI(373)=2048,
   NFPRGRI(374)=2048,
   NFPRGRI(375)=2160,
   NFPRGRI(376)=2160,
   NFPRGRI(377)=2160,
   NFPRGRI(378)=2160,
   NFPRGRI(379)=2160,
   NFPRGRI(380)=2160,
   NFPRGRI(381)=2160,
   NFPRGRI(382)=2160,
   NFPRGRI(383)=2160,
   NFPRGRI(384)=2160,
   NFPRGRI(385)=2160,
   NFPRGRI(386)=2160,
   NFPRGRI(387)=2160,
   NFPRGRI(388)=2160,
   NFPRGRI(389)=2160,
   NFPRGRI(390)=2160,
   NFPRGRI(391)=2160,
   NFPRGRI(392)=2160,
   NFPRGRI(393)=2160,
   NFPRGRI(394)=2160,
   NFPRGRI(395)=2160,
   NFPRGRI(396)=2160,
   NFPRGRI(397)=2160,
   NFPRGRI(398)=2160,
   NFPRGRI(399)=2160,
   NFPRGRI(400)=2160,
   NFPRGRI(401)=2160,
   NFPRGRI(402)=2160,
   NFPRGRI(403)=2160,
   NFPRGRI(404)=2160,
   NFPRGRI(405)=2160,
   NFPRGRI(406)=2160,
   NFPRGRI(407)=2160,
   NFPRGRI(408)=2160,
   NFPRGRI(409)=2160,
   NFPRGRI(410)=2250,
   NFPRGRI(411)=2250,
   NFPRGRI(412)=2250,
   NFPRGRI(413)=2250,
   NFPRGRI(414)=2250,
   NFPRGRI(415)=2250,
   NFPRGRI(416)=2250,
   NFPRGRI(417)=2250,
   NFPRGRI(418)=2250,
   NFPRGRI(419)=2250,
   NFPRGRI(420)=2250,
   NFPRGRI(421)=2250,
   NFPRGRI(422)=2250,
   NFPRGRI(423)=2250,
   NFPRGRI(424)=2250,
   NFPRGRI(425)=2250,
   NFPRGRI(426)=2250,
   NFPRGRI(427)=2250,
   NFPRGRI(428)=2250,
   NFPRGRI(429)=2250,
   NFPRGRI(430)=2250,
   NFPRGRI(431)=2250,
   NFPRGRI(432)=2250,
   NFPRGRI(433)=2250,
   NFPRGRI(434)=2250,
   NFPRGRI(435)=2250,
   NFPRGRI(436)=2250,
   NFPRGRI(437)=2250,
   NFPRGRI(438)=2250,
   NFPRGRI(439)=2250,
   NFPRGRI(440)=2250,
   NFPRGRI(441)=2250,
   NFPRGRI(442)=2250,
   NFPRGRI(443)=2250,
   NFPRGRI(444)=2250,
   NFPRGRI(445)=2304,
   NFPRGRI(446)=2304,
   NFPRGRI(447)=2304,
   NFPRGRI(448)=2304,
   NFPRGRI(449)=2304,
   NFPRGRI(450)=2304,
   NFPRGRI(451)=2304,
   NFPRGRI(452)=2304,
   NFPRGRI(453)=2304,
   NFPRGRI(454)=2304,
   NFPRGRI(455)=2304,
   NFPRGRI(456)=2304,
   NFPRGRI(457)=2304,
   NFPRGRI(458)=2304,
   NFPRGRI(459)=2304,
   NFPRGRI(460)=2304,
   NFPRGRI(461)=2304,
   NFPRGRI(462)=2304,
   NFPRGRI(463)=2304,
   NFPRGRI(464)=2304,
   NFPRGRI(465)=2304,
   NFPRGRI(466)=2304,
   NFPRGRI(467)=2304,
   NFPRGRI(468)=2304,
   NFPRGRI(469)=2304,
   NFPRGRI(470)=2400,
   NFPRGRI(471)=2400,
   NFPRGRI(472)=2400,
   NFPRGRI(473)=2400,
   NFPRGRI(474)=2400,
   NFPRGRI(475)=2400,
   NFPRGRI(476)=2400,
   NFPRGRI(477)=2400,
   NFPRGRI(478)=2400,
   NFPRGRI(479)=2400,
   NFPRGRI(480)=2400,
   NFPRGRI(481)=2400,
   NFPRGRI(482)=2400,
   NFPRGRI(483)=2400,
   NFPRGRI(484)=2400,
   NFPRGRI(485)=2400,
   NFPRGRI(486)=2400,
   NFPRGRI(487)=2400,
   NFPRGRI(488)=2400,
   NFPRGRI(489)=2400,
   NFPRGRI(490)=2400,
   NFPRGRI(491)=2400,
   NFPRGRI(492)=2400,
   NFPRGRI(493)=2400,
   NFPRGRI(494)=2400,
   NFPRGRI(495)=2400,
   NFPRGRI(496)=2400,
   NFPRGRI(497)=2400,
   NFPRGRI(498)=2400,
   NFPRGRI(499)=2400,
   NFPRGRI(500)=2400,
   NFPRGRI(501)=2400,
   NFPRGRI(502)=2400,
   NFPRGRI(503)=2400,
   NFPRGRI(504)=2400,
   NFPRGRI(505)=2400,
   NFPRGRI(506)=2400,
   NFPRGRI(507)=2400,
   NFPRGRI(508)=2400,
   NFPRGRI(509)=2400,
   NFPRGRI(510)=2400,
   NFPRGRI(511)=2400,
   NFPRGRI(512)=2400,
   NFPRGRI(513)=2400,
   NFPRGRI(514)=2400,
   NFPRGRI(515)=2400,
   NFPRGRI(516)=2400,
   NFPRGRI(517)=2400,
   NFPRGRI(518)=2400,
   NFPRGRI(519)=2400,
   NFPRGRI(520)=2400,
   NFPRGRI(521)=2400,
   NFPRGRI(522)=2400,
   NFPRGRI(523)=2400,
   NFPRGRI(524)=2400,
   NFPRGRI(525)=2400,
   NFPRGRI(526)=2400,
   NFPRGRI(527)=2400,
   NFPRGRI(528)=2400,
   NFPRGRI(529)=2400,
   NFPRGRI(530)=2400,
   NFPRGRI(531)=2400,
   NFPRGRI(532)=2400,
   NFPRGRI(533)=2400,
   NFPRGRI(534)=2400,
   NFPRGRI(535)=2400,
   NFPRGRI(536)=2400,
   NFPRGRI(537)=2400,
   NFPRGRI(538)=2400,
   NFPRGRI(539)=2400,
   NFPRGRI(540)=2400,
   NFPRGRI(541)=2400,
   NFPRGRI(542)=2400,
   NFPRGRI(543)=2400,
   NFPRGRI(544)=2400,
   NFPRGRI(545)=2400,
   NFPRGRI(546)=2400,
   NFPRGRI(547)=2400,
   NFPRGRI(548)=2400,
   NFPRGRI(549)=2400,
   NFPRGRI(550)=2400,
   NFPRGRI(551)=2400,
   NFPRGRI(552)=2400,
   NFPRGRI(553)=2400,
   NFPRGRI(554)=2400,
   NFPRGRI(555)=2400,
   NFPRGRI(556)=2400,
   NFPRGRI(557)=2400,
   NFPRGRI(558)=2400,
   NFPRGRI(559)=2400,
   NFPRGRI(560)=2400,
   NFPRGRI(561)=2400,
   NFPRGRI(562)=2400,
   NFPRGRI(563)=2400,
   NFPRGRI(564)=2400,
   NFPRGRI(565)=2400,
   NFPRGRI(566)=2400,
   NFPRGRI(567)=2400,
   NFPRGRI(568)=2400,
   NFPRGRI(569)=2400,
   NFPRGRI(570)=2400,
   NFPRGRI(571)=2400,
   NFPRGRI(572)=2400,
   NFPRGRI(573)=2400,
   NFPRGRI(574)=2400,
   NFPRGRI(575)=2400,
   NFPRGRI(576)=2400,
   NFPRGRI(577)=2400,
   NFPRGRI(578)=2400,
   NFPRGRI(579)=2400,
   NFPRGRI(580)=2400,
   NFPRGRI(581)=2400,
   NFPRGRI(582)=2400,
   NFPRGRI(583)=2400,
   NFPRGRI(584)=2400,
   NFPRGRI(585)=2400,
   NFPRGRI(586)=2400,
   NFPRGRI(587)=2400,
   NFPRGRI(588)=2400,
   NFPRGRI(589)=2400,
   NFPRGRI(590)=2400,
   NFPRGRI(591)=2400,
   NFPRGRI(592)=2400,
   NFPRGRI(593)=2400,
   NFPRGRI(594)=2400,
   NFPRGRI(595)=2400,
   NFPRGRI(596)=2400,
   NFPRGRI(597)=2400,
   NFPRGRI(598)=2400,
   NFPRGRI(599)=2400,
   NFPRGRI(600)=2400,
   NFPTTYP=2,
 /
