 &NACIETEO
 /
 &NACOBS
 /
 &NACTAN
 /
 &NACTEX
 /
 &NACVEG
 /
 &NADOCK
 /
 &NAEAEM7
 /
 &NAEAER
 /
 &NAECOAPHY
 /
 &NAEPHLI
 /
 &NAEPHY
 /
 &NAERAD
 /
 &NAERCLI
 /
 &NAETLDIAG
 /
 &NAEVOL
 /
 &NAIMPO
 /
 &NALORI
 /
 &NAMACV
 /
 &NAMAERDET
 /
 &NAMAFN
   GFP_CSNS%IANO=0,
   GFP_DST%IANO=0,
   GFP_DST%IBITS=12,
   GFP_DSW%IANO=0,
   GFP_SD%IANO=0,
   GFP_SD%IBITS=16,
   GFP_SFIS%IBITS=16,
   GFP_SSW%IANO=0,
   GFP_ST%IANO=0,
   GFP_ST%IBITS=12,
   GFP_X10U%IANO=0,
   GFP_X10U%IBITS=12,
   GFP_X10V%IANO=0,
   GFP_X10V%IBITS=12,
   GFP_X2RH%IANO=0,
   GFP_X2RH%IBITS=12,
   GFP_X2T%IANO=1,
   GFP_X2T%IBITS=12,
   GFP_XCCC%IBITS=8,
   GFP_XCLPH%LLMON=.TRUE.,
   GFP_XHCC%IBITS=8,
   GFP_XLCC%IBITS=8,
   GFP_XMCC%IBITS=8,
   GFP_XPTYPE%IBITS=16,
   GFP_XPTYPE2%IBITS=16,
   GFP_XPTYPESEV%IBITS=16,
   GFP_XPTYPESEV2%IBITS=16,
   GFP_XTCC%IBITS=8,
   GFP_XUGST%IANO=0,
   GFP_XUGST%IBITS=12,
   GFP_XUGST2%IANO=0,
   GFP_XUGST2%IBITS=12,
   GFP_XVGST%IANO=0,
   GFP_XVGST%IBITS=12,
   GFP_XVGST2%IANO=0,
   GFP_XVGST2%IBITS=12,
   TFP_CAPE%IBITS=16,
   TFP_HTB%IBITS=16,
   TFP_HTB%LLGP=.TRUE.,
   TFP_HU%IBITS=12,
   TFP_MSL%IBITS=12,
   TFP_T%IBITS=12,
   TFP_TH%IBITS=12,
   TFP_THPW%IBITS=12,
   TFP_TKE%IBITS=16,
   TFP_TWV%IBITS=12,
   TFP_U%IBITS=12,
   TFP_V%IBITS=12,
 /
 &NAMARG
 /
 &NAMARPHY
 /
 &NAMCA
 /
 &NAMCAPE
 /
 &NAMCFU
 /
 &NAMCHEM
 /
 &NAMCHET
 /
 &NAMCHK
 /
 &NAMCLA
 /
 &NAMCLDP
 /
 &NAMCLI
 /
 &NAMCLOP15
 /
 &NAMCLTC
 /
 &NAMCMEM_MW
 /
 &NAMCOK
 /
 &NAMCOM
 /
 &NAMCOMPO
 /
 &NAMCOSJO
 /
 &NAMCOUPLO4
 /
 &NAMCT0
 /
 &NAMCT1
 /
 &NAMCUMF
 /
 &NAMCUMFS
 /
 &NAMCVER
 /
 &NAMCVMNH
 /
 &NAMDDH
 /
 &NAMDFI
 /
 &NAMDIM
 /
 &NAMDIMO
 /
 &NAMDIM_TRAJ
 /
 &NAMDPHY
 /
 &NAMDPRECIPS
 /
 &NAMDVISI
 /
 &NAMDYN
 /
 &NAMDYNA
 /
 &NAMDYNCORE
 /
 &NAMEMIS_CONF
 /
 &NAMENKF
 /
 &NAMENSCOV
 /
 &NAMFA
 /
 &NAMFAINIT
 /
 &NAMFPC
   CFP2DF(1)='MSLPRESSURE',
   CFP2DF(2)='SURFPRESSION',
   CFP2DF(3)='SURFTOT.WAT.VAPO',
   CFP2DF(4)='SURFISOTPW0.MALT',
   CFP2DF(5)='SURFCAPE.POS.F00',
   CFP2DF(6)='SURFISOTPW1.MALT',
   CFP2DF(7)='SURFISOTPW2.MALT',
   CFP2DF(8)='SURFCIEN.POS.F00',
   CFP2DF(9)='ATMOMLCAPE.POS',
   CFP2DF(10)='ATMOCLD.CEIL.P',
   CFP2DF(11)='ATMOCLD.CEIL.H',
   CFP2DF(12)='ATMOCLD.BASE.P',
   CFP2DF(13)='ATMOCLD.BASE.H',
   CFP2DF(14)='ATMOCLD.TOP.P',
   CFP3DF(1)='GEOPOTENTIEL',
   CFP3DF(2)='TEMPERATURE',
   CFP3DF(3)='VENT_ZONAL',
   CFP3DF(4)='VENT_MERIDIEN',
   CFP3DF(5)='HUMI_RELATIVE',
   CFP3DF(6)='THETA_PRIM_W',
   CFP3DF(7)='TEMPE_POTENT',
   CFP3DF(8)='ABS_VORTICIT',
   CFP3DF(9)='POT_VORTICIT',
   CFP3DF(10)='VORTICITY',
   CFP3DF(11)='ISOT_ALTIT',
   CFP3DF(12)='DIVERGENCE',
   CFP3DF(13)='VITESSE_VERT',
   CFP3DF(14)='RAD_LIQUID_WATER',
   CFP3DF(15)='RAD_SOLID_WATER',
   CFPCFU(1)='SURFPREC.EAU.CON',
   CFPCFU(2)='SURFPREC.NEI.CON',
   CFPCFU(3)='SURFPREC.EAU.GEC',
   CFPCFU(4)='SURFPREC.NEI.GEC',
   CFPCFU(5)='SURFFLU.RAY.THER',
   CFPCFU(6)='SURFFLU.RAY.SOLA',
   CFPCFU(7)='SURFFLU.CHA.SENS',
   CFPCFU(8)='SOMMFLU.RAY.THER',
   CFPCFU(9)='SURFFLU.LAT.MTOT',
   CFPCFU(10)='SURFRAYT SOLA DE',
   CFPCFU(11)='SURFRAYT THER DE',
   CFPCFU(12)='SURFTENS.TOTA.ZO',
   CFPCFU(13)='SURFTENS.TOTA.ME',
   CFPCFU(14)='SURFFLU.MTOTA.NE',
   CFPCFU(15)='SURFRAYT SOL CL',
   CFPCFU(16)='SURFRAYT THER CL',
   CFPCFU(17)='SOMMFLU.RAY.SOLA',
   CFPCFU(18)='SURFDIAG.FLASH',
   CFPDIR='./diag/PF',
   CFPDOM(1)='EURAT01',
   CFPDOM(2)='GLOB025',
   CFPFMT='LALON',
   CFPMONIPATH_IN='./diag',
   CFPMONIPATH_OUT='./diag',
   CFPPHY(1)='SURFRESERV.NEIGE',
   CFPPHY(2)='SURFTEMPERATURE',
   CFPPHY(3)='PROFTEMPERATURE',
   CFPPHY(4)='INTSURFGEOPOTENT',
   CFPPHY(5)='SURFRESERV.EAU',
   CFPPHY(6)='PROFRESERV.EAU',
   CFPXFU(1)='SURFNEBUL.TOTALE',
   CFPXFU(2)='CLSU.RAF60M.XFU',
   CFPXFU(3)='CLSV.RAF60M.XFU',
   CFPXFU(4)='SURFNEBUL.BASSE',
   CFPXFU(5)='SURFNEBUL.CONVEC',
   CFPXFU(6)='SURFNEBUL.MOYENN',
   CFPXFU(7)='SURFNEBUL.HAUTE',
   CFPXFU(8)='SURFCAPE.MOD.XFU',
   CFPXFU(9)='CLPMHAUT.MOD.XFU',
   CFPXFU(10)='CLSTEMPERATURE',
   CFPXFU(11)='CLSHUMI.RELATIVE',
   CFPXFU(12)='CLSVENT.ZONAL',
   CFPXFU(13)='CLSVENT.MERIDIEN',
   CFPXFU(14)='CLSMAXI.TEMPERAT',
   CFPXFU(15)='CLSMINI.TEMPERAT',
   CFPXFU(16)='CLSU.RAF180M.XFU',
   CFPXFU(17)='CLSV.RAF180M.XFU',
   CFPXFU(18)='CLSVISIN_60',
   CFPXFU(19)='CLSVISIHYDN60',
   CFPXFU(20)='CLSVISIN_180',
   CFPXFU(21)='CLSVISIHYDN180',
   CFPXFU(22)='CLSPTYPE_60M',
   CFPXFU(23)='CLSPTYPESEV_60M',
   CFPXFU(24)='CLSPTYPE_180M',
   CFPXFU(25)='CLSPTYPESEV_180M',
   CFPXFU(26)='CLPTOPCONV.MOD.XFU',
   CFPXFU(27)='SEA.ICE.COVER   ',
   CFPXFU(28)='SURFHAUTEUR.NEIG',
   LCRITSNOWTEMP=.FALSE.,
   NFITI=1,
   NFITV=1,
   NFPCAPE=5,
   NFPGRIB=141,
   NFPINPHY=4,
   NITERPV=8,
   RENTRA=0.0012,
   RFP3H(1)=50.,
   RFP3H(2)=100.,
   RFP3H(3)=500.,
   RFP3H(4)=10.,
   RFP3H(5)=20.,
   RFP3I(1)=-273.15,
   RFP3I(2)=-263.15,
   RFP3P(1)=5000.,
   RFP3P(2)=20000.,
   RFP3P(3)=25000.,
   RFP3P(4)=30000.,
   RFP3P(5)=40000.,
   RFP3P(6)=50000.,
   RFP3P(7)=60000.,
   RFP3P(8)=70000.,
   RFP3P(9)=80000.,
   RFP3P(10)=85000.,
   RFP3P(11)=92500.,
   RFP3P(12)=95000.,
   RFP3P(13)=100000.,
   RFP3PV(1)=0.0000015,
   RFP3PV(2)=0.000002,
   RFPVCAP=7000.,
   RMLDEP=10000.,
 /
 &NAMFPD
 /
 &NAMFPDY2
 /
 &NAMFPDYF
 /
 &NAMFPDYH
 /
 &NAMFPDYI
 /
 &NAMFPDYP
 /
 &NAMFPDYS
 /
 &NAMFPDYT
 /
 &NAMFPDYV
 /
 &NAMFPF
   NFMAX(1)=450,
   NFMAX(2)=210,
   NFPCMAX=4049,
 /
 &NAMFPG
 /
 &NAMFPIOS
   NFPXFLD=256,
 /
 &NAMFPMOVE
 /
 &NAMFPOBJ
 /
 &NAMFPPHY
 /
 &NAMFPSC2
   NFPROMA=-48,
 /
 &NAMFPSC2_DEP
   NFPROMA_DEP=-48,
 /
 &NAMGEM
 /
 &NAMGFL
 /
 &NAMGRIB
 /
 &NAMGWD
 /
 &NAMGWDIAG
 /
 &NAMGWWMS
 /
 &NAMIAU
 /
 &NAMICE
 /
 &NAMINI
 /
 &NAMINTFLEX
 /
 &NAMIOMI
 /
 &NAMIOS
 /
 &NAMIO_SERV
 /
 &NAMJBCODES
 /
 &NAMJG
 /
 &NAMLCZ
 /
 &NAMLIMA
 /
 &NAMLSFORC
 /
 &NAMMARS
 /
 &NAMMCC
 /
 &NAMMCUF
 /
 &NAMMETHOX
 /
 &NAMMKODB
 /
 &NAMMODERR
 /
 &NAMMTS
 /
 &NAMMWAVE
 /
 &NAMNORGWD
 /
 &NAMNPROF
 /
 &NAMNUD
 /
 &NAMNUDGLH
 /
 &NAMOBS
 /
 &NAMONEDVAR
 /
 &NAMOOPS
 /
 &NAMOPH
 /
 &NAMOPTCMEM
 /
 &NAMPAR0
 /
 &NAMPAR1
 /
 &NAMPARAR
 /
 &NAMPERTOBS
 /
 &NAMPERTPAR
 /
 &NAMPHMSE
 /
 &NAMPHY
 /
 &NAMPHY0
 /
 &NAMPHY1
 /
 &NAMPHY2
 /
 &NAMPHY3
 /
 &NAMPHYDS
 /
 &NAMPPC
 /
 &NAMPPVI
 /
 &NAMPRE
 /
 &NAMPSOT
 /
 &NAMRAD15
 /
 &NAMRADCMEM
 /
 &NAMRCF
 /
 &NAMRCOEF
 /
 &NAMRES
 /
 &NAMRGRI
 /
 &NAMRINC
 /
 &NAMRIP
 /
 &NAMRIP0
 /
 &NAMRLX
 /
 &NAMSATS
 /
 &NAMSATSIM
 /
 &NAMSCC
 /
 &NAMSCEN
 /
 &NAMSCM
 /
 &NAMSEKF
 /
 &NAMSENS
 /
 &NAMSFXCMP
 /
 &NAMSIMPHL
 /
 &NAMSPNG
 /
 &NAMSPP
 /
 &NAMSPSDT
 /
 &NAMSTA
 /
 &NAMSTOPH
 /
 &NAMSWE
 /
 &NAMTESTVAR
 /
 &NAMTHLIM
 /
 &NAMTOPH
 /
 &NAMTRAJ
 /
 &NAMTRAJP
 /
 &NAMTRANS
 /
 &NAMTRANS0
 /
 &NAMTS
 /
 &NAMVAR
 /
 &NAMVARBC
 /
 &NAMVARBC_AIREP
 /
 &NAMVARBC_ALLSKY
 /
 &NAMVARBC_GBRAD
 /
 &NAMVARBC_MODES
 /
 &NAMVARBC_RAD
 /
 &NAMVARBC_RSONDE
 /
 &NAMVARBC_SFCOBS
 /
 &NAMVARBC_TCWV
 /
 &NAMVARBC_TO3
 /
 &NAMVAREPS
 /
 &NAMVDF
 /
 &NAMVDOZ
 /
 &NAMVOLCANO
 /
 &NAMVRTL
 /
 &NAMVV0
 /
 &NAMVV1
 /
 &NAMVWRK
 /
 &NAMWAVELETJB
 /
 &NAMXFU
 /
 &NAM_ASSIM
 /
 &NAM_CANAPE
 /
 &NAM_DISTRIBUTED_VECTORS
 /
 &NAM_REPROD_OPER
 /
 &NAPHLC
 /
 &NEMCT0
 /
 &NEMDIM
 /
 &NEMDYN
 /
 &NEMELBC0A
 /
 &NEMELBC0B
 /
 &NEMFPEZO
 /
 &NEMGEO
 /
 &NEMJK
 /
 &NEMVAR
 /
 &NEMWAVELET
 /
 &RADIATION
 /
