 &NAMMCUF
   LMCUF=.TRUE.,
   LREACUF=.TRUE.,
 /
