 &NACIETEO
 /
 &NACOBS
 /
 &NACTAN
 /
 &NACTEX
 /
 &NACVEG
 /
 &NADOCK
 /
 &NAEAEM7
 /
 &NAEAER
 /
 &NAECOAPHY
 /
 &NAEPHLI
 /
 &NAEPHY
 /
 &NAERAD
   LSRTM=.FALSE.,
 /
 &NAERCLI
 /
 &NAETLDIAG
 /
 &NAEVOL
 /
 &NAIMPO
 /
 &NALORI
 /
 &NAMACV
 /
 &NAMAERDET
 /
 &NAMAFN
   TFP_U%CLNAME='WIND.U.PHYS',
   TFP_V%CLNAME='WIND.V.PHYS',
 /
 &NAMARG
   CNMEXP='CEXP',
   LELAM=.FALSE.,
   LSLAG=.FALSE.,
   NCONF=903,
   NFPSERVER=1,
   NSUPERSEDE=1,
 /
 &NAMARPHY
 /
 &NAMCA
 /
 &NAMCAPE
 /
 &NAMCFU
 /
 &NAMCHEM
 /
 &NAMCHET
 /
 &NAMCHK
 /
 &NAMCLA
 /
 &NAMCLDP
 /
 &NAMCLI
 /
 &NAMCLOP15
 /
 &NAMCLTC
 /
 &NAMCMEM_MW
 /
 &NAMCOK
 /
 &NAMCOM
 /
 &NAMCOMPO
 /
 &NAMCOSJO
 /
 &NAMCOUPLO4
 /
 &NAMCT0
   CFPNCF=__IOPOLL_WHITNESSFILE__,
   CSCRIPT_PPSERVER=__SERVERSYNC_SCRIPT__,
   NFPOS=2,
   NFRPOS=__INPUTDATALEN__,
   NPOSTS(0)=0,
   NSDITS(0:1)=1,
   NSPPR=0,
 /
 &NAMCT1
   LRFILAF=.FALSE.,
 /
 &NAMCUMF
 /
 &NAMCUMFS
 /
 &NAMCVER
 /
 &NAMCVMNH
 /
 &NAMDDH
 /
 &NAMDFI
 /
 &NAMDIM
   NPROMA=-16,
 /
 &NAMDIMO
 /
 &NAMDIM_TRAJ
 /
 &NAMDPHY
 /
 &NAMDPRECIPS
 /
 &NAMDVISI
 /
 &NAMDYN
 /
 &NAMDYNA
 /
 &NAMDYNCORE
 /
 &NAMEMIS_CONF
 /
 &NAMENKF
 /
 &NAMENSCOV
 /
 &NAMFA
 /
 &NAMFAINIT
 /
 &NAMFPC
   LFPQ=.FALSE.,
   NFPCLI=2,
   RSNSTPX=275.,
   RWPITPX=278.,
 /
 &NAMFPD
 /
 &NAMFPDY2
 /
 &NAMFPDYF
 /
 &NAMFPDYH
 /
 &NAMFPDYI
 /
 &NAMFPDYP
 /
 &NAMFPDYS
 /
 &NAMFPDYT
 /
 &NAMFPDYV
 /
 &NAMFPF
 /
 &NAMFPG
 /
 &NAMFPIOS
 /
 &NAMFPMOVE
 /
 &NAMFPOBJ
 /
 &NAMFPPHY
 /
 &NAMFPSC2
   NFPROMA=-16,
 /
 &NAMFPSC2_DEP
   NFPROMA_DEP=-16,
 /
 &NAMGEM
 /
 &NAMGFL
 /
 &NAMGRIB
   NCYCLE=47,
 /
 &NAMGWD
 /
 &NAMGWDIAG
 /
 &NAMGWWMS
 /
 &NAMIAU
 /
 &NAMICE
 /
 &NAMINI
 /
 &NAMINTFLEX
 /
 &NAMIOMI
 /
 &NAMIOS
 /
 &NAMIO_SERV
 /
 &NAMJBCODES
 /
 &NAMJG
 /
 &NAMLCZ
 /
 &NAMLIMA
 /
 &NAMLSFORC
 /
 &NAMMARS
 /
 &NAMMCC
 /
 &NAMMCUF
   LMCUF=.TRUE.,
   LREACUF=.TRUE.,
 /
 &NAMMETHOX
 /
 &NAMMKODB
 /
 &NAMMODERR
 /
 &NAMMTS
 /
 &NAMMWAVE
 /
 &NAMNORGWD
 /
 &NAMNPROF
 /
 &NAMNUD
 /
 &NAMNUDGLH
 /
 &NAMOBS
 /
 &NAMONEDVAR
 /
 &NAMOOPS
 /
 &NAMOPH
 /
 &NAMOPTCMEM
 /
 &NAMPAR0
   MBX_SIZE=2048000000,
   MP_TYPE=2,
   NOUTPUT=1,
   NPRGPEW=1,
   NPRGPNS='NBPROC',
   NPROC='NBPROC',
   NPRTRV=1,
   NPRTRW='NBPROC',
 /
 &NAMPAR1
   LEQ_REGIONS=.FALSE.,
   LSPLIT=.TRUE.,
   NCOMBFLEN=1800000,
   NSTRIN='NBPROC',
   NSTROUT='NBPROC',
 /
 &NAMPARAR
 /
 &NAMPERTOBS
 /
 &NAMPERTPAR
 /
 &NAMPHMSE
 /
 &NAMPHY
   LAERODES=.TRUE.,
   LAEROLAN=.TRUE.,
   LAEROSEA=.TRUE.,
   LAEROSOO=.TRUE.,
   LCONDWT=.FALSE.,
   LO3ABC=.TRUE.,
   LPROCLD=.FALSE.,
   LVGSN=.TRUE.,
 /
 &NAMPHY0
 /
 &NAMPHY1
 /
 &NAMPHY2
 /
 &NAMPHY3
 /
 &NAMPHYDS
 /
 &NAMPPC
 /
 &NAMPPVI
 /
 &NAMPRE
 /
 &NAMPSOT
 /
 &NAMRAD15
 /
 &NAMRADCMEM
 /
 &NAMRCF
 /
 &NAMRCOEF
 /
 &NAMRES
 /
 &NAMRGRI
 /
 &NAMRINC
 /
 &NAMRIP
 /
 &NAMRIP0
 /
 &NAMRLX
 /
 &NAMSATS
 /
 &NAMSATSIM
 /
 &NAMSCC
 /
 &NAMSCEN
 /
 &NAMSCM
 /
 &NAMSEKF
 /
 &NAMSENS
 /
 &NAMSFXCMP
 /
 &NAMSIMPHL
 /
 &NAMSPNG
 /
 &NAMSPP
 /
 &NAMSPSDT
 /
 &NAMSTA
 /
 &NAMSTOPH
 /
 &NAMSWE
 /
 &NAMTESTVAR
 /
 &NAMTHLIM
 /
 &NAMTOPH
 /
 &NAMTRAJ
 /
 &NAMTRAJP
 /
 &NAMTRANS
 /
 &NAMTRANS0
   NPROMATR=106,
 /
 &NAMTS
 /
 &NAMVAR
 /
 &NAMVARBC
 /
 &NAMVARBC_AIREP
 /
 &NAMVARBC_ALLSKY
 /
 &NAMVARBC_GBRAD
 /
 &NAMVARBC_MODES
 /
 &NAMVARBC_RAD
 /
 &NAMVARBC_RSONDE
 /
 &NAMVARBC_SFCOBS
 /
 &NAMVARBC_TCWV
 /
 &NAMVARBC_TO3
 /
 &NAMVAREPS
 /
 &NAMVDF
 /
 &NAMVDOZ
 /
 &NAMVOLCANO
 /
 &NAMVRTL
 /
 &NAMVV0
 /
 &NAMVV1
 /
 &NAMVWRK
 /
 &NAMWAVELETJB
 /
 &NAMXFU
 /
 &NAM_ASSIM
 /
 &NAM_CANAPE
 /
 &NAM_DISTRIBUTED_VECTORS
 /
 &NAM_REPROD_OPER
 /
 &NAPHLC
 /
 &NEMCT0
 /
 &NEMDIM
 /
 &NEMDYN
 /
 &NEMELBC0A
 /
 &NEMELBC0B
 /
 &NEMFPEZO
 /
 &NEMGEO
 /
 &NEMJK
 /
 &NEMVAR
 /
 &NEMWAVELET
 /
 &RADIATION
 /
