 &NACIETEO
 /
 &NACOBS
 /
 &NACTAN
 /
 &NACTEX
 /
 &NACVEG
 /
 &NADOCK
 /
 &NAEAEM7
 /
 &NAEAER
 /
 &NAECOAPHY
 /
 &NAEPHLI
 /
 &NAEPHY
 /
 &NAERAD
   LAER3D=.TRUE.,
   LRRTM=.TRUE.,
   LSRTM=.TRUE.,
   LUSEPRE2017RAD=.FALSE.,
   NAER=0,
   NAERMACC=1,
   NDUMPBADINPUTS=0,
   NICEOPT=3,
   NLIQOPT=2,
   NMCICA=1,
   NOVLP=1,
   NOZOCL=4,
   NRADFR=18,
   NRADIP=3,
   NRADLP=2,
   NSW=6,
   RLWINHF=1,
   RRE2DE=0.64952,
   RSWINHF=1,
 /
 &NAERCLI
 /
 &NAETLDIAG
 /
 &NAEVOL
 /
 &NAIMPO
 /
 &NALORI
 /
 &NAMACV
 /
 &NAMAERDET
 /
 &NAMAFN
   GFP_CFLASH%INTER=0,
   GFP_SFIS%IBITS=16,
   GFP_ST%IANO=0,
   GFP_ST%IBITS=12,
   GFP_X10U%IANO=0,
   GFP_X10U%IBITS=12,
   GFP_X10V%IANO=0,
   GFP_X10V%IBITS=12,
   GFP_X2RH%IANO=0,
   GFP_X2RH%IBITS=12,
   GFP_X2T%IANO=1,
   GFP_XCCC%IBITS=8,
   GFP_XHCC%IBITS=8,
   GFP_XLCC%IBITS=8,
   GFP_XMCC%IBITS=8,
   GFP_XN2T%IBITS=12,
   GFP_XTCC%IBITS=8,
   GFP_XUGST%IANO=0,
   GFP_XUGST%IBITS=12,
   GFP_XVGST%IANO=0,
   GFP_XVGST%IBITS=12,
   GFP_XX2T%IBITS=12,
   GFP_XXDIAGH%IBITS=12,
   TFP_ABS%ZFK=32.,
   TFP_CLF%IBITS=6,
   TFP_EDR%IBITS=16,
   TFP_EDR%IGRIB=136,
   TFP_GR%IBITS=12,
   TFP_HL%IBITS=12,
   TFP_HTB%IBITS=16,
   TFP_HTB%LLGP=.TRUE.,
   TFP_HU%IBITS=12,
   TFP_MSAT9C2%IBITS=12,
   TFP_MSAT9C6%IBITS=12,
   TFP_MSLNH%IBITS=12,
   TFP_PV%ZFK=16,
   TFP_RCLS%IBITS=12,
   TFP_RR%IBITS=12,
   TFP_SN%IBITS=12,
   TFP_T%IBITS=12,
   TFP_TCLS%IBITS=12,
   TFP_TH%IBITS=12,
   TFP_THPW%IBITS=12,
   TFP_THV%IBITS=12,
   TFP_TN%IBITS=12,
   TFP_TWV%IBITS=12,
   TFP_TX%IBITS=12,
   TFP_U%IBITS=12,
   TFP_V%IBITS=12,
   TFP_VOR%ZFK=32.,
   TFP_VV%ZFK=32.,
 /
 &NAMARG
   CNMEXP=__CEXP__,
   LSLAG=.TRUE.,
   NCONF=1,
   NSUPERSEDE=1,
 /
 &NAMARPHY
   LKFBCONV=.FALSE.,
   LKFBD=.FALSE.,
   LKFBS=.FALSE.,
   LMFSHAL=.TRUE.,
   LMICRO=.TRUE.,
   LMPA=.TRUE.,
   LMSE=.TRUE.,
   LTURB=.TRUE.,
 /
 &NAMCA
 /
 &NAMCAPE
 /
 &NAMCFU
   CALFLASH1=0.018,
   LCUMFU=.TRUE.,
   LFLASH=.TRUE.,
   LFPLS=.TRUE.,
   LFPLSG=.TRUE.,
   LFR=.TRUE.,
   LFRRC=.TRUE.,
   LFSF=.TRUE.,
   LNEBPAR=.TRUE.,
   LNEBTT=.TRUE.,
   LRAYD=.TRUE.,
   LRAYS=.TRUE.,
   NMTFLASH=1,
 /
 &NAMCHEM
 /
 &NAMCHET
 /
 &NAMCHK
 /
 &NAMCLA
 /
 &NAMCLDP
 /
 &NAMCLI
 /
 &NAMCLOP15
 /
 &NAMCLTC
 /
 &NAMCMEM_MW
 /
 &NAMCOK
 /
 &NAMCOM
 /
 &NAMCOMPO
 /
 &NAMCOSJO
 /
 &NAMCOUPLO4
 /
 &NAMCT0
   CFPNCF='ECHFP',
   CNPPATH='.',
   CSCRIPT_LAMRTC='./atcp.alad',
   LAROME=.TRUE.,
   LNHEE=.TRUE.,
   LSCREEN_OPENMP=.FALSE.,
   LSPRT=.TRUE.,
   LTWOTL=.TRUE.,
   NFPOS=1,
   NFRHIS=1,
   NFRPOS=1,
   NFRSDI=1,
   NHISTS(0)=-79,
   NHISTS(1)=0,
   NHISTS(2)=-1,
   NHISTS(3)=-2,
   NHISTS(4)=-3,
   NHISTS(5)=-4,
   NHISTS(6)=-5,
   NHISTS(7)=-6,
   NHISTS(8)=-7,
   NHISTS(9)=-8,
   NHISTS(10)=-9,
   NHISTS(11)=-10,
   NHISTS(12)=-11,
   NHISTS(13)=-12,
   NHISTS(14)=-13,
   NHISTS(15)=-14,
   NHISTS(16)=-15,
   NHISTS(17)=-16,
   NHISTS(18)=-17,
   NHISTS(19)=-18,
   NHISTS(20)=-19,
   NHISTS(21)=-20,
   NHISTS(22)=-21,
   NHISTS(23)=-22,
   NHISTS(24)=-23,
   NHISTS(25)=-24,
   NHISTS(26)=-25,
   NHISTS(27)=-26,
   NHISTS(28)=-27,
   NHISTS(29)=-28,
   NHISTS(30)=-29,
   NHISTS(31)=-30,
   NHISTS(32)=-31,
   NHISTS(33)=-32,
   NHISTS(34)=-33,
   NHISTS(35)=-34,
   NHISTS(36)=-35,
   NHISTS(37)=-36,
   NHISTS(38)=-37,
   NHISTS(39)=-38,
   NHISTS(40)=-39,
   NHISTS(41)=-40,
   NHISTS(42)=-41,
   NHISTS(43)=-42,
   NHISTS(44)=-43,
   NHISTS(45)=-44,
   NHISTS(46)=-45,
   NHISTS(47)=-46,
   NHISTS(48)=-47,
   NHISTS(49)=-48,
   NHISTS(50)=-49,
   NHISTS(51)=-50,
   NHISTS(52)=-51,
   NHISTS(53)=-52,
   NHISTS(54)=-53,
   NHISTS(55)=-54,
   NHISTS(56)=-55,
   NHISTS(57)=-56,
   NHISTS(58)=-57,
   NHISTS(59)=-58,
   NHISTS(60)=-59,
   NHISTS(61)=-60,
   NHISTS(62)=-61,
   NHISTS(63)=-62,
   NHISTS(64)=-63,
   NHISTS(65)=-64,
   NHISTS(66)=-65,
   NHISTS(67)=-66,
   NHISTS(68)=-67,
   NHISTS(69)=-68,
   NHISTS(70)=-69,
   NHISTS(71)=-70,
   NHISTS(72)=-71,
   NHISTS(73)=-72,
   NHISTS(74)=-73,
   NHISTS(75)=-74,
   NHISTS(76)=-75,
   NHISTS(77)=-76,
   NHISTS(78)=-77,
   NHISTS(79)=-78,
   NPOSTS(0)=-79,
   NPOSTS(1)=0,
   NPOSTS(2)=-1,
   NPOSTS(3)=-2,
   NPOSTS(4)=-3,
   NPOSTS(5)=-4,
   NPOSTS(6)=-5,
   NPOSTS(7)=-6,
   NPOSTS(8)=-7,
   NPOSTS(9)=-8,
   NPOSTS(10)=-9,
   NPOSTS(11)=-10,
   NPOSTS(12)=-11,
   NPOSTS(13)=-12,
   NPOSTS(14)=-13,
   NPOSTS(15)=-14,
   NPOSTS(16)=-15,
   NPOSTS(17)=-16,
   NPOSTS(18)=-17,
   NPOSTS(19)=-18,
   NPOSTS(20)=-19,
   NPOSTS(21)=-20,
   NPOSTS(22)=-21,
   NPOSTS(23)=-22,
   NPOSTS(24)=-23,
   NPOSTS(25)=-24,
   NPOSTS(26)=-25,
   NPOSTS(27)=-26,
   NPOSTS(28)=-27,
   NPOSTS(29)=-28,
   NPOSTS(30)=-29,
   NPOSTS(31)=-30,
   NPOSTS(32)=-31,
   NPOSTS(33)=-32,
   NPOSTS(34)=-33,
   NPOSTS(35)=-34,
   NPOSTS(36)=-35,
   NPOSTS(37)=-36,
   NPOSTS(38)=-37,
   NPOSTS(39)=-38,
   NPOSTS(40)=-39,
   NPOSTS(41)=-40,
   NPOSTS(42)=-41,
   NPOSTS(43)=-42,
   NPOSTS(44)=-43,
   NPOSTS(45)=-44,
   NPOSTS(46)=-45,
   NPOSTS(47)=-46,
   NPOSTS(48)=-47,
   NPOSTS(49)=-48,
   NPOSTS(50)=-49,
   NPOSTS(51)=-50,
   NPOSTS(52)=-51,
   NPOSTS(53)=-52,
   NPOSTS(54)=-53,
   NPOSTS(55)=-54,
   NPOSTS(56)=-55,
   NPOSTS(57)=-56,
   NPOSTS(58)=-57,
   NPOSTS(59)=-58,
   NPOSTS(60)=-59,
   NPOSTS(61)=-60,
   NPOSTS(62)=-61,
   NPOSTS(63)=-62,
   NPOSTS(64)=-63,
   NPOSTS(65)=-64,
   NPOSTS(66)=-65,
   NPOSTS(67)=-66,
   NPOSTS(68)=-67,
   NPOSTS(69)=-68,
   NPOSTS(70)=-69,
   NPOSTS(71)=-70,
   NPOSTS(72)=-71,
   NPOSTS(73)=-72,
   NPOSTS(74)=-73,
   NPOSTS(75)=-74,
   NPOSTS(76)=-75,
   NPOSTS(77)=-76,
   NPOSTS(78)=-77,
   NPOSTS(79)=-78,
   NSDITS(0)=-27,
   NSDITS(1)=0,
   NSDITS(2)=-3,
   NSDITS(3)=-6,
   NSDITS(4)=-9,
   NSDITS(5)=-12,
   NSDITS(6)=-15,
   NSDITS(7)=-18,
   NSDITS(8)=-21,
   NSDITS(9)=-24,
   NSDITS(10)=-27,
   NSDITS(11)=-30,
   NSDITS(12)=-33,
   NSDITS(13)=-36,
   NSDITS(14)=-39,
   NSDITS(15)=-42,
   NSDITS(16)=-45,
   NSDITS(17)=-48,
   NSDITS(18)=-51,
   NSDITS(19)=-54,
   NSDITS(20)=-57,
   NSDITS(21)=-60,
   NSDITS(22)=-63,
   NSDITS(23)=-66,
   NSDITS(24)=-69,
   NSDITS(25)=-72,
   NSDITS(26)=-75,
   NSDITS(27)=-78,
   NSFXHISTS(0)=-14,
   NSFXHISTS(1)=0,
   NSFXHISTS(2)=-6,
   NSFXHISTS(3)=-12,
   NSFXHISTS(4)=-18,
   NSFXHISTS(5)=-24,
   NSFXHISTS(6)=-30,
   NSFXHISTS(7)=-36,
   NSFXHISTS(8)=-42,
   NSFXHISTS(9)=-48,
   NSFXHISTS(10)=-54,
   NSFXHISTS(11)=-60,
   NSFXHISTS(12)=-66,
   NSFXHISTS(13)=-72,
   NSFXHISTS(14)=-78,
 /
 &NAMCT1
   LRFILAF=.FALSE.,
   N1HIS=1,
   N1POS=1,
   N1RES=0,
   N1SDI=1,
   N1SFXHIS=1,
 /
 &NAMCUMF
 /
 &NAMCUMFS
 /
 &NAMCVER
 /
 &NAMCVMNH
 /
 &NAMDDH
 /
 &NAMDFI
 /
 &NAMDIM
   NPROMA=-16,
 /
 &NAMDIMO
 /
 &NAMDIM_TRAJ
 /
 &NAMDPHY
 /
 &NAMDPRECIPS
 /
 &NAMDVISI
   HVISI=5.,
 /
 &NAMDYN
   LADVF=.TRUE.,
   LQMPD=.FALSE.,
   LQMT=.FALSE.,
   LQMVD=.FALSE.,
   LRHDI_LASTITERPC=.TRUE.,
   NITMP=4,
   NSITER=1,
   NSPDLAG=3,
   NSVDLAG=3,
   NTLAG=3,
   NVLAG=3,
   NWLAG=3,
   RDAMPDIV=20.,
   RDAMPPD=20.,
   RDAMPQ=0.,
   RDAMPT=0.,
   RDAMPVD=20.,
   RDAMPVOR=20.,
   REPS1=0.,
   REPS2=0.,
   REPSM1=0.,
   REPSM2=0.,
   REPSP1=0.,
   SDRED=1.,
   SIPR=90000.,
   SITR=350.,
   SITRA=100.,
   SLHDA0=0.25,
   SLHDD00=0.000065,
   VESL=0.05,
   XIDT=0.,
   ZSLHDP1=1.7,
   ZSLHDP3=0.6,
 /
 &NAMDYNA
   LCOMADH=.TRUE.,
   LCOMADV=.FALSE.,
   LCOMAD_GFL=.TRUE.,
   LCOMAD_SP=.TRUE.,
   LCOMAD_SPD=.TRUE.,
   LCOMAD_SVD=.TRUE.,
   LCOMAD_T=.TRUE.,
   LCOMAD_W=.TRUE.,
   LGWADV=.TRUE.,
   LNESC=.TRUE.,
   LPC_CHEAP=.TRUE.,
   LPC_FULL=.TRUE.,
   LRDBBC=.FALSE.,
   LSETTLS=.FALSE.,
   LSETTLST=.TRUE.,
   LSLHD_GFL=.FALSE.,
   LSLHD_OLD=.FALSE.,
   LSLHD_SPD=.FALSE.,
   LSLHD_SVD=.FALSE.,
   LSLHD_T=.FALSE.,
   LSLHD_W=.FALSE.,
   ND4SYS=2,
   SLHDEPSH=0.012,
   SLHDKMAX=6,
 /
 &NAMDYNCORE
 /
 &NAMEMIS_CONF
 /
 &NAMENKF
 /
 &NAMENSCOV
 /
 &NAMFA
   LSUPPDATE=.FALSE.,
 /
 &NAMFAINIT
 /
 &NAMFPC
   CFP2DF(1)='SURFPRESSION',
   CFP2DF(2)='MSL_NHPRESSURE',
   CFP2DF(3)='SURFTOT.WAT.VAPO',
   CFP2DF(4)='SURFISOTPW0.MALT',
   CFP2DF(5)='SURFISOTPW1.MALT',
   CFP2DF(6)='SURFISOTPW2.MALT',
   CFP2DF(9)='SURFCAPE.POS.F00',
   CFP2DF(10)='SURFCIEN.POS.F00',
   CFP2DF(11)='ATMOMLCAPE.POS',
   CFP2DF(12)='SURFREFLECT.MAX',
   CFP2DF(13)='REFLECT_DBZ.MAX',
   CFP2DF(14)='ECHOTOP',
   CFP2DF(15)='ATMOCLD.CEIL.P',
   CFP2DF(16)='ATMOCLD.CEIL.H',
   CFP2DF(17)='ATMOCLD.BASE.P',
   CFP2DF(18)='ATMOCLD.BASE.H',
   CFP2DF(19)='ATMOCLD.TOP.P',
   CFP2DF(20)='ATMOCLD.TOPCON.P',
   CFP2DF(21)='ATMOCLD.BASCON.P',
   CFP3DF(1)='GEOPOTENTIEL',
   CFP3DF(2)='TEMPERATURE',
   CFP3DF(3)='VENT_ZONAL',
   CFP3DF(4)='VENT_MERIDIEN',
   CFP3DF(5)='HUMI_RELATIVE',
   CFP3DF(6)='THETA_PRIM_W',
   CFP3DF(7)='PRESSURE',
   CFP3DF(8)='ABS_VORTICITY',
   CFP3DF(9)='VITESSE_VERTICALE',
   CFP3DF(10)='TEMPE_POTENT',
   CFP3DF(11)='POT_VORTICIT',
   CFP3DF(12)='SIM_REFLECTI',
   CFP3DF(13)='RAIN',
   CFP3DF(14)='SNOW',
   CFP3DF(15)='GRAUPEL',
   CFP3DF(16)='ICE_CRYSTAL',
   CFP3DF(17)='CLOUD_WATER',
   CFP3DF(18)='VERT.VELOCIT',
   CFP3DF(19)='DIVERGENCE',
   CFP3DF(20)='THETA_VIRTUA',
   CFP3DF(21)='TKE',
   CFP3DF(22)='CLOUD_FRACTI',
   CFP3DF(23)='ISOT_ALTIT',
   CFP3DF(24)='EDR',
   CFP3DF(25)='REFLEC_DBZ',
   CFP3DF(26)='TPRIM_W',
   CFPCFU(1)='SURFTENS.TOTA.ZO',
   CFPCFU(2)='SURFTENS.TOTA.ME',
   CFPCFU(3)='SURFACCPLUIE',
   CFPCFU(4)='SURFACCNEIGE',
   CFPCFU(5)='SURFACCGRAUPEL',
   CFPCFU(6)='SOMMFLU.RAY.SOLA',
   CFPCFU(7)='SURFFLU.RAY.SOLA',
   CFPCFU(8)='SOMMFLU.RAY.THER',
   CFPCFU(9)='SURFFLU.RAY.THER',
   CFPCFU(10)='SURFFLU.LAT.MTOT',
   CFPCFU(11)='SURFFLU.MTOTA.NE',
   CFPCFU(12)='SURFFLU.CHA.SENS',
   CFPCFU(13)='SURFRAYT SOLA DE',
   CFPCFU(14)='SURFRAYT THER DE',
   CFPCFU(15)='SURFRAYT SOL CL',
   CFPCFU(16)='SURFRAYT THER CL',
   CFPCFU(17)='SURFRAYT DIR SUR',
   CFPCFU(18)='SURFDIAG.FLASH',
   CFPPHY(1)='SURFTEMPERATURE',
   CFPPHY(2)='INTSURFGEOPOTENT',
   CFPPHY(3)='SURFRESERV.NEIGE',
   CFPXFU(1)='CLSTEMPERATURE',
   CFPXFU(2)='CLSHUMI.RELATIVE',
   CFPXFU(3)='CLSVENT.ZONAL',
   CFPXFU(4)='CLSVENT.MERIDIEN',
   CFPXFU(5)='SURFNEBUL.TOTALE',
   CFPXFU(6)='SURFNEBUL.CONVEC',
   CFPXFU(7)='SURFNEBUL.HAUTE',
   CFPXFU(8)='SURFNEBUL.MOYENN',
   CFPXFU(9)='SURFNEBUL.BASSE',
   CFPXFU(10)='CLSU.RAF60M.XFU',
   CFPXFU(11)='CLSV.RAF60M.XFU',
   CFPXFU(12)='CLSMAXI.TEMPERAT',
   CFPXFU(13)='CLSMINI.TEMPERAT',
   CFPXFU(14)='CLPMHAUT.MOD.XFU',
   CFPXFU(15)='SURFDIAGHAIL',
   CFPXFU(16)='SURFACCGRELE',
   CFPXFU(17)='CLSVISIN_60',
   CFPXFU(18)='CLSVISIHYDN60',
   CFPXFU(19)='CLD_WX_60M',
   CFPXFU(20)='CLSPTYPE_60M',
   CFPXFU(21)='CLSPTYPESEV_60M',
   CFPXFU(22)='SURFHAUTEUR.NEIG',
   CFPXFU(23)='CLPVMAXT.MOD.XFU',
   LCRITSNOWTEMP=.FALSE.,
   LFPMOIS=.TRUE.,
   LFPPACKING=.FALSE.,
   LWIDER_DOM=.FALSE.,
   L_READ_MODEL_DATE=.TRUE.,
   NFITI=1,
   NFITV=1,
   NFPCAPE=5,
   NFPGRIB=141,
   NFPINPHY=4,
   NITERPV=8,
   RENTRA=0.0001,
   RFP3H(1)=20.,
   RFP3H(2)=50.,
   RFP3H(3)=100.,
   RFP3H(4)=250.,
   RFP3H(5)=500.,
   RFP3H(6)=750.,
   RFP3H(7)=1000.,
   RFP3H(8)=1250.,
   RFP3H(9)=1500.,
   RFP3H(10)=2000.,
   RFP3H(11)=2500.,
   RFP3H(12)=3000.,
   RFP3I(1)=-273.15,
   RFP3I(2)=-263.15,
   RFP3I(3)=-261.15,
   RFP3I(4)=-253.15,
   RFP3P(1)=10000.,
   RFP3P(2)=15000.,
   RFP3P(3)=17500.,
   RFP3P(4)=20000.,
   RFP3P(5)=22500.,
   RFP3P(6)=25000.,
   RFP3P(7)=27500.,
   RFP3P(8)=30000.,
   RFP3P(9)=35000.,
   RFP3P(10)=40000.,
   RFP3P(11)=50000.,
   RFP3P(12)=60000.,
   RFP3P(13)=70000.,
   RFP3P(14)=80000.,
   RFP3P(15)=85000.,
   RFP3P(16)=90000.,
   RFP3P(17)=92500.,
   RFP3P(18)=95000.,
   RFP3P(19)=100000.,
   RFP3PV(1)=0.0000015,
   RFP3PV(2)=7.0D-7,
   RFPCD2=5.,
   RFPCSAB=50.,
   RFPVCAP=7000.,
 /
 &NAMFPD
   NFPRLY=4,
 /
 &NAMFPDY2
 /
 &NAMFPDYF
 /
 &NAMFPDYH
 /
 &NAMFPDYI
 /
 &NAMFPDYP
 /
 &NAMFPDYS
 /
 &NAMFPDYT
 /
 &NAMFPDYV
 /
 &NAMFPF
   NFMAX(1)=60,
 /
 &NAMFPG
 /
 &NAMFPIOS
 /
 &NAMFPMOVE
 /
 &NAMFPOBJ
 /
 &NAMFPPHY
 /
 &NAMFPSC2
   NFPROMA=-16,
 /
 &NAMFPSC2_DEP
   NFPROMA_DEP=-16,
 /
 &NAMGEM
 /
 &NAMGFL
   NACTAERO=12,
   NGFL_EZDIAG=3,
   YEZDIAG_NL(1)%CNAME='EZDIAG01',
   YEZDIAG_NL(1)%LREQOUT=.FALSE.,
   YEZDIAG_NL(2)%CNAME='EZDIAG02',
   YEZDIAG_NL(2)%LREQOUT=.FALSE.,
   YEZDIAG_NL(3)%CNAME='EZDIAG03',
   YEZDIAG_NL(3)%LREQOUT=.FALSE.,
   YG_NL%LCOMAD=.TRUE.,
   YG_NL%LINTLIN=.TRUE.,
   YG_NL%LQM=.TRUE.,
   YG_NL%LSLHD=.FALSE.,
   YG_NL%NCOUPLING=-1,
   YG_NL%NREQIN=1,
   YG_NL%REFVALC=0.,
   YIRAD_NL%LGP=.TRUE.,
   YI_NL%LCOMAD=.TRUE.,
   YI_NL%LINTLIN=.TRUE.,
   YI_NL%LQM=.TRUE.,
   YI_NL%LSLHD=.FALSE.,
   YI_NL%NCOUPLING=-1,
   YI_NL%NREQIN=1,
   YI_NL%REFVALC=0.,
   YLRAD_NL%LGP=.TRUE.,
   YL_NL%LCOMAD=.TRUE.,
   YL_NL%LINTLIN=.TRUE.,
   YL_NL%LQM=.TRUE.,
   YL_NL%LSLHD=.FALSE.,
   YL_NL%NCOUPLING=-1,
   YL_NL%NREQIN=1,
   YL_NL%REFVALC=0.,
   YQ_NL%LCOMAD=.TRUE.,
   YQ_NL%LQM=.TRUE.,
   YQ_NL%LSLHD=.FALSE.,
   YQ_NL%NREQIN=1,
   YR_NL%LCOMAD=.TRUE.,
   YR_NL%LINTLIN=.TRUE.,
   YR_NL%LQM=.TRUE.,
   YR_NL%LSLHD=.FALSE.,
   YR_NL%NCOUPLING=-1,
   YR_NL%NREQIN=1,
   YR_NL%REFVALC=0.,
   YS_NL%LCOMAD=.TRUE.,
   YS_NL%LINTLIN=.TRUE.,
   YS_NL%LQM=.TRUE.,
   YS_NL%LSLHD=.FALSE.,
   YS_NL%NCOUPLING=-1,
   YS_NL%NREQIN=1,
   YS_NL%REFVALC=0.,
   YTKE_NL%NCOUPLING=0,
   YTKE_NL%NREQIN=1,
 /
 &NAMGRIB
 /
 &NAMGWD
 /
 &NAMGWDIAG
 /
 &NAMGWWMS
 /
 &NAMIAU
 /
 &NAMICE
 /
 &NAMINI
 /
 &NAMINTFLEX
 /
 &NAMIOMI
 /
 &NAMIOS
 /
 &NAMIO_SERV
 /
 &NAMJBCODES
 /
 &NAMJG
 /
 &NAMLCZ
 /
 &NAMLIMA
 /
 &NAMLSFORC
 /
 &NAMMARS
 /
 &NAMMCC
 /
 &NAMMCUF
 /
 &NAMMETHOX
 /
 &NAMMKODB
 /
 &NAMMODERR
 /
 &NAMMTS
 /
 &NAMMWAVE
 /
 &NAMNORGWD
 /
 &NAMNPROF
 /
 &NAMNUD
 /
 &NAMNUDGLH
 /
 &NAMOBS
 /
 &NAMONEDVAR
 /
 &NAMOOPS
 /
 &NAMOPH
   CFNHWF='ECHIS',
   NTIMEFMT=1,
 /
 &NAMOPTCMEM
 /
 &NAMPAR0
   LMPOFF=.FALSE.,
   MBX_SIZE=2048000000,
   MP_TYPE=2,
   NOUTPUT=1,
   NPRGPEW=__PART_TASKS2D_X_XCLOSETO_8__,
   NPRGPNS=__PART_TASKS2D_Y_XCLOSETO_8__,
   NPROC=__NBPROC__,
   NPRTRV=__PART_TASKS2D_X_XCLOSETO_8__,
   NPRTRW=__PART_TASKS2D_Y_XCLOSETO_8__,
 /
 &NAMPAR1
   LEQ_REGIONS=.FALSE.,
   LSLONDEM=.TRUE.,
   LSPLIT=.TRUE.,
   LSYNC_SLCOM=.FALSE.,
   LSYNC_TRANS=.FALSE.,
   L_GATHERV_WRGP=.FALSE.,
   NCOMBFLEN=1800000,
   NDISTIO(12)=1,
   NSTRIN=100,
   NSTROUT=__NBPROC__,
 /
 &NAMPARAR
   CFRAC_ICE_ADJUST='S',
   CFRAC_ICE_SHALLOW_MF='S',
   CMICRO='ICE3',
   CSEDIM='STAT',
   CSNOWRIMING='M90',
   LBL89ARPEGE=.TRUE.,
   LBL89EXP=.FALSE.,
   LCONVHG=.TRUE.,
   LCRFLIMIT=.TRUE.,
   LCRIAUTI=.TRUE.,
   LEVLIMIT=.TRUE.,
   LFEEDBACKT=.TRUE.,
   LNULLWETG=.TRUE.,
   LNULLWETH=.TRUE.,
   LOLSMC=.TRUE.,
   LOSEDIC=.TRUE.,
   LOSIGMAS=.TRUE.,
   LOSUBG_COND=.TRUE.,
   LPROJQITURB=.FALSE.,
   LSEDIM_AFTER=.FALSE.,
   LWETGPOST=.TRUE.,
   LWETHPOST=.TRUE.,
   NMAXITER_MICRO=1,
   NPRINTFR=10000,
   NPTP=1,
   RCRIAUTC=0.001,
   RCRIAUTI=0.0002,
   RT0CRIAUTI=-5.,
   VSIGQSAT=0.02,
   XFRACM90=0.1,
   XMRSTEP=0.00005,
   XSPLIT_MAXCFL=0.8,
   XTSTEP_TS=0.,
   XVMAXTHM=1.9,
   XVMAXTHP=1.9,
 /
 &NAMPERTOBS
 /
 &NAMPERTPAR
 /
 &NAMPHMSE
   LPGDFWR=.FALSE.,
 /
 &NAMPHY
   LAERODES=.FALSE.,
   LAEROLAN=.FALSE.,
   LAEROSEA=.FALSE.,
   LAEROSOO=.FALSE.,
   LDPRECIPS=.TRUE.,
   LEDR=.TRUE.,
   LMPHYS=.TRUE.,
   LO3ABC=.TRUE.,
   LRAYFM=.TRUE.,
 /
 &NAMPHY0
   ALMAV=300.,
   BEDIFV=0.05,
   ECMNP=3000.,
   GCCSV=0.,
   GCVADS=0.8,
   GCVALFA=0.000045,
   GCVBETA=0.2,
   GCVMLT=0.00016,
   GCVNU=0.000025,
   GCVPSI=1.,
   GCVPSIE=1.,
   GDDEVA=0.25,
   GDDSDE=0.5,
   GWDCD=6.,
   HUCOE=0.5,
   HUTIL=1.8,
   QSSC=400.,
   QSSUSC=0.75,
   QSSUSS=0.4,
   QSSUSV=250.,
   QSUSXC=0.0002,
   QSUSXS=0.0003,
   QXRAL=130.,
   QXRDEL=0.49,
   QXRHX=0.99,
   QXRR=0.25,
   RCVEVAP=0.25,
   REFLKUO=5000.,
   REVGSL=15.,
   SCO=-20.,
   TDDGP=0.8,
   TENTR=0.0000025,
   TENTRX=0.00008,
   TUDGP=0.8,
   UHDIFV=0.0008,
   USURIC=0.175,
   USURICE=0.5,
   USURICL=1.,
   USURID=0.1,
   USURIDE=0.25,
   VZ0CM=0.00015,
   XMAXLM=5000.,
   XMINLM=10.,
 /
 &NAMPHY1
   ALBMIN=0.65,
   ALCRIN=0.75,
   GCGEL=0.00003,
   GCGELS=0.00005,
   GNEIMX=1.8,
   GNEIMXS=1.8,
   RCTVEG(3)=0.000012,
   RCTVEG(4)=0.00001,
 /
 &NAMPHY2
   FACRAF=3.8,
   HTKERAF=20.,
   LMULAF=.TRUE.,
   LRAFTKE=.TRUE.,
   LRAFTUR=.TRUE.,
   XDAMP=1.,
   XMULAF=-1.85,
 /
 &NAMPHY3
 /
 &NAMPHYDS
 /
 &NAMPPC
 /
 &NAMPPVI
 /
 &NAMPRE
 /
 &NAMPSOT
 /
 &NAMRAD15
 /
 &NAMRADCMEM
 /
 &NAMRCF
 /
 &NAMRCOEF
 /
 &NAMRES
 /
 &NAMRGRI
 /
 &NAMRINC
 /
 &NAMRIP
 /
 &NAMRIP0
 /
 &NAMRLX
 /
 &NAMSATS
   LPARTIAL_COEF_FILES=.TRUE.,
 /
 &NAMSATSIM
 /
 &NAMSCC
 /
 &NAMSCEN
 /
 &NAMSCM
 /
 &NAMSEKF
 /
 &NAMSENS
 /
 &NAMSFXCMP
   CFLDNAME(1)='????????????????',
   NBBITS(1)=24,
   NVGRIBSFX=123,
 /
 &NAMSIMPHL
 /
 &NAMSPNG
 /
 &NAMSPP
 /
 &NAMSPSDT
 /
 &NAMSTA
 /
 &NAMSTOPH
 /
 &NAMSWE
 /
 &NAMTESTVAR
 /
 &NAMTHLIM
 /
 &NAMTOPH
   ETCVIM=5000.,
   ETNEBU=5000.,
   ETPLUI=5000.,
   XDRMTK=6.0D-7,
   XDRMTP=800.,
   XDRMUK=3.0D-7,
   XDRMUP=800.,
 /
 &NAMTRAJ
 /
 &NAMTRAJP
 /
 &NAMTRANS
 /
 &NAMTRANS0
 /
 &NAMTS
 /
 &NAMVAR
 /
 &NAMVARBC
 /
 &NAMVARBC_AIREP
 /
 &NAMVARBC_ALLSKY
 /
 &NAMVARBC_GBRAD
 /
 &NAMVARBC_MODES
 /
 &NAMVARBC_RAD
 /
 &NAMVARBC_RSONDE
 /
 &NAMVARBC_SFCOBS
 /
 &NAMVARBC_TCWV
 /
 &NAMVARBC_TO3
 /
 &NAMVAREPS
 /
 &NAMVDF
 /
 &NAMVDOZ
 /
 &NAMVOLCANO
 /
 &NAMVRTL
 /
 &NAMVV0
 /
 &NAMVV1
 /
 &NAMVWRK
 /
 &NAMWAVELETJB
 /
 &NAMXFU
   LXCLP=.TRUE.,
   LXCLS=.TRUE.,
   LXFU=.TRUE.,
   LXNEBPA=.TRUE.,
   LXNEBTT=.TRUE.,
   LXPLS=.TRUE.,
   LXPLSG=.TRUE.,
   LXQCLS=.TRUE.,
   LXR=.TRUE.,
   LXSNOWDEPTH=.TRUE.,
   LXSOIL=.FALSE.,
   LXTHW=.TRUE.,
   LXTRT=.TRUE.,
   LXTTCLS=.TRUE.,
   LXVISI=.TRUE.,
   LXVMAXTH=.TRUE.,
   LXXDIAGH=.TRUE.,
   LXXGST=.TRUE.,
   NRAZTS(0)=-49,
   NRAZTS(1)=0,
   NRAZTS(2)=-1,
   NRAZTS(3)=-2,
   NRAZTS(4)=-3,
   NRAZTS(5)=-4,
   NRAZTS(6)=-5,
   NRAZTS(7)=-6,
   NRAZTS(8)=-7,
   NRAZTS(9)=-8,
   NRAZTS(10)=-9,
   NRAZTS(11)=-10,
   NRAZTS(12)=-11,
   NRAZTS(13)=-12,
   NRAZTS(14)=-13,
   NRAZTS(15)=-14,
   NRAZTS(16)=-15,
   NRAZTS(17)=-16,
   NRAZTS(18)=-17,
   NRAZTS(19)=-18,
   NRAZTS(20)=-19,
   NRAZTS(21)=-20,
   NRAZTS(22)=-21,
   NRAZTS(23)=-22,
   NRAZTS(24)=-23,
   NRAZTS(25)=-24,
   NRAZTS(26)=-25,
   NRAZTS(27)=-26,
   NRAZTS(28)=-27,
   NRAZTS(29)=-28,
   NRAZTS(30)=-29,
   NRAZTS(31)=-30,
   NRAZTS(32)=-31,
   NRAZTS(33)=-32,
   NRAZTS(34)=-33,
   NRAZTS(35)=-34,
   NRAZTS(36)=-35,
   NRAZTS(37)=-36,
   NRAZTS(38)=-37,
   NRAZTS(39)=-38,
   NRAZTS(40)=-39,
   NRAZTS(41)=-40,
   NRAZTS(42)=-41,
   NRAZTS(43)=-42,
   NRAZTS(44)=-43,
   NRAZTS(45)=-44,
   NRAZTS(46)=-45,
   NRAZTS(47)=-46,
   NRAZTS(48)=-47,
   NRAZTS(49)=-48,
   NRAZTS(50)=-49,
   NRAZTS(51)=-50,
   NRAZTS(52)=-51,
   NRAZTS(53)=-52,
   NRAZTS(54)=-53,
   NRAZTS(55)=-54,
   NRAZTS(56)=-55,
   NRAZTS(57)=-56,
   NRAZTS(58)=-57,
   NRAZTS(59)=-58,
   NRAZTS(60)=-59,
   NRAZTS(61)=-60,
   NRAZTS(62)=-61,
   NRAZTS(63)=-62,
   NRAZTS(64)=-63,
   NRAZTS(65)=-64,
   NRAZTS(66)=-65,
   NRAZTS(67)=-66,
   NRAZTS(68)=-67,
   NRAZTS(69)=-68,
   NRAZTS(70)=-69,
   NRAZTS(71)=-70,
   NRAZTS(72)=-71,
   NRAZTS(73)=-72,
   NRAZTS(74)=-73,
   NRAZTS(75)=-74,
   NRAZTS(76)=-75,
   NRAZTS(77)=-76,
   NRAZTS(78)=-77,
   NRAZTS(79)=-78,
 /
 &NAM_ASSIM
 /
 &NAM_CANAPE
 /
 &NAM_DISTRIBUTED_VECTORS
 /
 &NAM_REPROD_OPER
 /
 &NAPHLC
 /
 &NEMCT0
 /
 &NEMDIM
 /
 &NEMDYN
 /
 &NEMELBC0A
 /
 &NEMELBC0B
   NEFRSPCPL=1,
   NEN1=4,
   NEN2=8,
   SPNUDDIV=0.01,
   SPNUDQ=0.,
   SPNUDT=0.01,
   SPNUDVOR=0.01,
   TEFRCL=3600,
 /
 &NEMFPEZO
 /
 &NEMGEO
 /
 &NEMJK
 /
 &NEMVAR
 /
 &NEMWAVELET
 /
 &RADIATION
   CLOUD_FRACTION_THRESHOLD=0.000001,
   CLOUD_INHOM_DECORR_SCALING=1.,
   CLOUD_MIXING_RATIO_THRESHOLD=1.00D-9,
   DIRECTORY_NAME='.',
   DO_CLEAR=.TRUE.,
   DO_FU_LW_ICE_OPTICS_BUG=.FALSE.,
   DO_LW_AEROSOL_SCATTERING=.FALSE.,
   DO_LW_CLOUD_SCATTERING=.FALSE.,
   DO_LW_DERIVATIVES=.TRUE.,
   DO_SAVE_GPOINT_FLUX=.FALSE.,
   DO_SAVE_RADIATIVE_PROPERTIES=.FALSE.,
   DO_SAVE_SPECTRAL_FLUX=.FALSE.,
   DO_SURFACE_SW_SPECTRAL_FLUX=.TRUE.,
   DO_SW_DELTA_SCALING_WITH_GASES=.FALSE.,
   GAS_MODEL_NAME='RRTMG-IFS',
   ICE_MODEL_NAME='Fu-IFS',
   IVERBOSE=1,
   IVERBOSESETUP=3,
   LIQUID_MODEL_NAME='Nielsen',
   LW_SOLVER_NAME='McICA',
   OVERLAP_SCHEME_NAME='Exp-Ran',
   SW_SOLVER_NAME='McICA',
   USE_AEROSOLS=.TRUE.,
   USE_BETA_OVERLAP=.FALSE.,
 /
