 &NACIETEO
 /
 &NACOBS
 /
 &NACTAN
 /
 &NACTEX
 /
 &NACVEG
 /
 &NADOCK
 /
 &NAEAEM7
 /
 &NAEAER
 /
 &NAECOAPHY
 /
 &NAEPHLI
 /
 &NAEPHY
 /
 &NAERAD
   LAER3D=.TRUE.,
   LRRTM=.TRUE.,
   LSRTM=.TRUE.,
   LUSEPRE2017RAD=.FALSE.,
   NAER=0,
   NAERMACC=1,
   NDUMPBADINPUTS=0,
   NICEOPT=3,
   NLIQOPT=2,
   NMCICA=1,
   NOVLP=1,
   NOZOCL=4,
   NRADFR=18,
   NRADIP=3,
   NRADLP=2,
   NSW=6,
   RLWINHF=1,
   RRE2DE=0.64952,
   RSWINHF=1,
 /
 &NAERCLI
 /
 &NAETLDIAG
 /
 &NAEVOL
 /
 &NAIMPO
 /
 &NALORI
 /
 &NAMACV
 /
 &NAMAERDET
 /
 &NAMAFN
 /
 &NAMARG
   CNMEXP='CEXP',
   LSLAG=.TRUE.,
   NCONF=1,
   NSUPERSEDE=1,
 /
 &NAMARPHY
   LKFBCONV=.FALSE.,
   LKFBD=.FALSE.,
   LKFBS=.FALSE.,
   LMFSHAL=.TRUE.,
   LMICRO=.TRUE.,
   LMPA=.TRUE.,
   LMSE=.TRUE.,
   LTURB=.TRUE.,
 /
 &NAMCA
 /
 &NAMCAPE
 /
 &NAMCFU
   CALFLASH1=0.018,
   LCUMFU=.TRUE.,
   LFLASH=.TRUE.,
   LFPLS=.TRUE.,
   LFPLSG=.TRUE.,
   LFR=.TRUE.,
   LFRRC=.TRUE.,
   LFSF=.TRUE.,
   LNEBPAR=.TRUE.,
   LNEBTT=.TRUE.,
   LRAYD=.TRUE.,
   LRAYS=.TRUE.,
   NMTFLASH=1,
 /
 &NAMCHEM
 /
 &NAMCHET
 /
 &NAMCHK
 /
 &NAMCLA
 /
 &NAMCLDP
 /
 &NAMCLI
 /
 &NAMCLOP15
 /
 &NAMCLTC
 /
 &NAMCMEM_MW
 /
 &NAMCOK
 /
 &NAMCOM
 /
 &NAMCOMPO
 /
 &NAMCOSJO
 /
 &NAMCOUPLO4
 /
 &NAMCT0
   CFPNCF='ECHFP',
   CNPPATH='.',
   CSCRIPT_LAMRTC='./atcp.alad',
   LAROME=.TRUE.,
   LNHEE=.FALSE.,
   LSCREEN_OPENMP=.FALSE.,
   LSPRT=.TRUE.,
   LTWOTL=.TRUE.,
   LWRSPECA_GP=.TRUE.,
   LWRSPECA_GP_UV=.TRUE.,
   NFPOS=0,
   NFRHIS=1,
   NFRPOS=1,
   NFRSDI=1,
   NHISTS(0)=-1,
   NHISTS(1)=-3,
   NSDITS(0)=-1,
   NSDITS(1)=0,
   NSFXHISTS(0)=-1,
   NSFXHISTS(1)=-3,
 /
 &NAMCT1
   LRFILAF=.FALSE.,
   N1HIS=1,
   N1POS=0,
   N1RES=0,
   N1SDI=1,
   N1SFXHIS=1,
 /
 &NAMCUMF
 /
 &NAMCUMFS
 /
 &NAMCVER
 /
 &NAMCVMNH
 /
 &NAMDDH
 /
 &NAMDFI
 /
 &NAMDIM
   NPROMA=-16,
 /
 &NAMDIMO
 /
 &NAMDIM_TRAJ
 /
 &NAMDPHY
 /
 &NAMDPRECIPS
 /
 &NAMDVISI
   HVISI=5.,
 /
 &NAMDYN
   LADVF=.TRUE.,
   LQMPD=.FALSE.,
   LQMT=.FALSE.,
   LQMVD=.FALSE.,
   LRHDI_LASTITERPC=.TRUE.,
   NITMP=4,
   NSITER=0,
   NSPDLAG=3,
   NSVDLAG=3,
   NTLAG=3,
   NVLAG=3,
   NWLAG=3,
   RDAMPDIV=20.,
   RDAMPPD=20.,
   RDAMPQ=0.,
   RDAMPT=0.,
   RDAMPVD=20.,
   RDAMPVOR=20.,
   REPS1=0.,
   REPS2=0.,
   REPSM1=0.,
   REPSM2=0.,
   REPSP1=0.,
   SDRED=1.,
   SITRA=100.,
   SLHDA0=0.25,
   SLHDD00=0.000065,
   VESL=0.05,
   ZSLHDP1=1.7,
   ZSLHDP3=0.6,
 /
 &NAMDYNA
   LCOMADH=.TRUE.,
   LCOMADV=.FALSE.,
   LCOMAD_GFL=.TRUE.,
   LCOMAD_SP=.TRUE.,
   LCOMAD_SPD=.TRUE.,
   LCOMAD_SVD=.TRUE.,
   LCOMAD_T=.TRUE.,
   LCOMAD_W=.TRUE.,
   LGWADV=.TRUE.,
   LRDBBC=.FALSE.,
   LSLHD_GFL=.FALSE.,
   LSLHD_OLD=.FALSE.,
   LSLHD_SPD=.FALSE.,
   LSLHD_SVD=.FALSE.,
   LSLHD_T=.FALSE.,
   LSLHD_W=.FALSE.,
   ND4SYS=2,
   SLHDEPSH=0.08,
   SLHDKMAX=6,
 /
 &NAMDYNCORE
 /
 &NAMEMIS_CONF
 /
 &NAMENKF
 /
 &NAMENSCOV
 /
 &NAMFA
 /
 &NAMFAINIT
 /
 &NAMFPC
 /
 &NAMFPD
 /
 &NAMFPDY2
 /
 &NAMFPDYF
 /
 &NAMFPDYH
 /
 &NAMFPDYI
 /
 &NAMFPDYP
 /
 &NAMFPDYS
 /
 &NAMFPDYT
 /
 &NAMFPDYV
 /
 &NAMFPF
 /
 &NAMFPG
 /
 &NAMFPIOS
 /
 &NAMFPMOVE
 /
 &NAMFPOBJ
 /
 &NAMFPPHY
 /
 &NAMFPSC2
 /
 &NAMFPSC2_DEP
 /
 &NAMGEM
 /
 &NAMGFL
   NACTAERO=12,
   NGFL_EZDIAG=3,
   YEZDIAG_NL(1)%CNAME='EZDIAG01',
   YEZDIAG_NL(1)%LREQOUT=.FALSE.,
   YEZDIAG_NL(2)%CNAME='EZDIAG02',
   YEZDIAG_NL(2)%LREQOUT=.FALSE.,
   YEZDIAG_NL(3)%CNAME='EZDIAG03',
   YEZDIAG_NL(3)%LREQOUT=.FALSE.,
   YG_NL%LCOMAD=.TRUE.,
   YG_NL%LINTLIN=.TRUE.,
   YG_NL%LQM=.TRUE.,
   YG_NL%LSLHD=.FALSE.,
   YG_NL%NCOUPLING=-1,
   YG_NL%NREQIN=1,
   YG_NL%REFVALC=0.,
   YIRAD_NL%LGP=.TRUE.,
   YI_NL%LCOMAD=.TRUE.,
   YI_NL%LINTLIN=.TRUE.,
   YI_NL%LQM=.TRUE.,
   YI_NL%LSLHD=.FALSE.,
   YI_NL%NCOUPLING=-1,
   YI_NL%NREQIN=1,
   YI_NL%REFVALC=0.,
   YLRAD_NL%LGP=.TRUE.,
   YL_NL%LCOMAD=.TRUE.,
   YL_NL%LINTLIN=.TRUE.,
   YL_NL%LQM=.TRUE.,
   YL_NL%LSLHD=.FALSE.,
   YL_NL%NCOUPLING=-1,
   YL_NL%NREQIN=1,
   YL_NL%REFVALC=0.,
   YQ_NL%LCOMAD=.TRUE.,
   YQ_NL%LQM=.TRUE.,
   YQ_NL%LSLHD=.FALSE.,
   YQ_NL%NREQIN=1,
   YR_NL%LCOMAD=.TRUE.,
   YR_NL%LINTLIN=.TRUE.,
   YR_NL%LQM=.TRUE.,
   YR_NL%LSLHD=.FALSE.,
   YR_NL%NCOUPLING=-1,
   YR_NL%NREQIN=1,
   YR_NL%REFVALC=0.,
   YS_NL%LCOMAD=.TRUE.,
   YS_NL%LINTLIN=.TRUE.,
   YS_NL%LQM=.TRUE.,
   YS_NL%LSLHD=.FALSE.,
   YS_NL%NCOUPLING=-1,
   YS_NL%NREQIN=1,
   YS_NL%REFVALC=0.,
   YTKE_NL%NCOUPLING=0,
   YTKE_NL%NREQIN=1,
 /
 &NAMGRIB
 /
 &NAMGWD
 /
 &NAMGWDIAG
 /
 &NAMGWWMS
 /
 &NAMIAU
 /
 &NAMICE
 /
 &NAMINI
 /
 &NAMINTFLEX
 /
 &NAMIOMI
 /
 &NAMIOS
 /
 &NAMIO_SERV
   IDISTIO=-1,
 /
 &NAMJBCODES
 /
 &NAMJG
 /
 &NAMLCZ
 /
 &NAMLIMA
 /
 &NAMLSFORC
 /
 &NAMMARS
 /
 &NAMMCC
 /
 &NAMMCUF
 /
 &NAMMETHOX
 /
 &NAMMKODB
 /
 &NAMMODERR
 /
 &NAMMTS
 /
 &NAMMWAVE
 /
 &NAMNORGWD
 /
 &NAMNPROF
 /
 &NAMNUD
 /
 &NAMNUDGLH
 /
 &NAMOBS
 /
 &NAMONEDVAR
 /
 &NAMOOPS
 /
 &NAMOPH
 /
 &NAMOPTCMEM
 /
 &NAMPAR0
   LMPOFF=.FALSE.,
   MBX_SIZE=2048000000,
   MP_TYPE=2,
   NOUTPUT=1,
   NPRGPEW=__PART_TASKS2D_X_XCLOSETO_16__,
   NPRGPNS=__PART_TASKS2D_Y_XCLOSETO_16__,
   NPROC='NBPROC',
   NPRTRV=__PART_TASKS2D_X_XCLOSETO_16__,
   NPRTRW=__PART_TASKS2D_Y_XCLOSETO_16__,
 /
 &NAMPAR1
   LEQ_REGIONS=.FALSE.,
   LSLONDEM=.TRUE.,
   LSPLIT=.TRUE.,
   LSYNC_SLCOM=.FALSE.,
   LSYNC_TRANS=.FALSE.,
   L_GATHERV_WRGP=.FALSE.,
   NCOMBFLEN=1800000,
   NDISTIO(12)=1,
   NSTRIN=100,
   NSTROUT='NBPROC',
 /
 &NAMPARAR
   CFRAC_ICE_ADJUST='S',
   CFRAC_ICE_SHALLOW_MF='S',
   CMICRO='ICE3',
   CSEDIM='STAT',
   CSNOWRIMING='M90',
   LBL89ARPEGE=.TRUE.,
   LBL89EXP=.FALSE.,
   LCONVHG=.TRUE.,
   LCRFLIMIT=.TRUE.,
   LCRIAUTI=.TRUE.,
   LEVLIMIT=.TRUE.,
   LFEEDBACKT=.TRUE.,
   LIMIT_TENDQ=.TRUE.,
   LNULLWETG=.TRUE.,
   LNULLWETH=.TRUE.,
   LOLSMC=.TRUE.,
   LOSEDIC=.TRUE.,
   LOSIGMAS=.TRUE.,
   LOSUBG_COND=.TRUE.,
   LSEDIM_AFTER=.FALSE.,
   LWETGPOST=.TRUE.,
   LWETHPOST=.TRUE.,
   NMAXITER_MICRO=1,
   NPRINTFR=10000,
   NPTP=1,
   RCRIAUTC=0.001,
   RCRIAUTI=0.0002,
   RT0CRIAUTI=-5.,
   VSIGQSAT=0.02,
   XFRACM90=0.1,
   XMRSTEP=0.00005,
   XSPLIT_MAXCFL=0.8,
   XTSTEP_TS=0.,
 /
 &NAMPERTOBS
 /
 &NAMPERTPAR
 /
 &NAMPHMSE
   LPGDFWR=.FALSE.,
 /
 &NAMPHY
   LAERODES=.FALSE.,
   LAEROLAN=.FALSE.,
   LAEROSEA=.FALSE.,
   LAEROSOO=.FALSE.,
   LDPRECIPS=.TRUE.,
   LEDR=.TRUE.,
   LMPHYS=.TRUE.,
   LO3ABC=.TRUE.,
   LRAYFM=.TRUE.,
   NSOLE=1,
 /
 &NAMPHY0
   ALMAV=300.,
   BEDIFV=0.05,
   ECMNP=3000.,
   GCCSV=0.,
   GCVADS=0.8,
   GCVALFA=0.000045,
   GCVBETA=0.2,
   GCVMLT=0.00016,
   GCVNU=0.000025,
   GCVPSI=1.,
   GCVPSIE=1.,
   GDDEVA=0.25,
   GDDSDE=0.5,
   GWDCD=6.,
   HUCOE=0.5,
   HUTIL=1.8,
   QSSC=400.,
   QSSUSC=0.75,
   QSSUSS=0.4,
   QSSUSV=250.,
   QSUSXC=0.0002,
   QSUSXS=0.0003,
   QXRAL=130.,
   QXRDEL=0.49,
   QXRHX=0.99,
   QXRR=0.25,
   RCVEVAP=0.25,
   REFLKUO=5000.,
   REVGSL=15.,
   SCO=-20.,
   TDDGP=0.8,
   TENTR=0.0000025,
   TENTRX=0.00008,
   TUDGP=0.8,
   UHDIFV=0.0008,
   USURIC=0.175,
   USURICE=0.5,
   USURICL=1.,
   USURID=0.1,
   USURIDE=0.25,
   VZ0CM=0.00015,
   XMAXLM=5000.,
   XMINLM=10.,
 /
 &NAMPHY1
   ALBMIN=0.65,
   ALCRIN=0.75,
   GCGEL=0.00003,
   GCGELS=0.00005,
   GNEIMX=1.8,
   GNEIMXS=1.8,
   RCTVEG(3)=0.000012,
   RCTVEG(4)=0.00001,
 /
 &NAMPHY2
   FACRAF=3.8,
   HTKERAF=20.,
   LMULAF=.TRUE.,
   LRAFTKE=.TRUE.,
   LRAFTUR=.TRUE.,
   XDAMP=1.,
   XMULAF=-1.85,
 /
 &NAMPHY3
 /
 &NAMPHYDS
 /
 &NAMPPC
 /
 &NAMPPVI
 /
 &NAMPRE
 /
 &NAMPSOT
 /
 &NAMRAD15
 /
 &NAMRADCMEM
 /
 &NAMRCF
 /
 &NAMRCOEF
 /
 &NAMRES
 /
 &NAMRGRI
 /
 &NAMRINC
 /
 &NAMRIP
   CSTOP='FCSTOP',
   TSTEP='TIMESTEP',
 /
 &NAMRIP0
 /
 &NAMRLX
 /
 &NAMSATS
   LPARTIAL_COEF_FILES=.TRUE.,
 /
 &NAMSATSIM
 /
 &NAMSCC
 /
 &NAMSCEN
 /
 &NAMSCM
 /
 &NAMSEKF
 /
 &NAMSENS
 /
 &NAMSFXCMP
   CFLDNAME(1)='????????????????',
   NBBITS(1)=24,
   NVGRIBSFX=123,
 /
 &NAMSIMPHL
 /
 &NAMSPNG
 /
 &NAMSPP
 /
 &NAMSPSDT
   LSPSDT=.FALSE.,
 /
 &NAMSTA
 /
 &NAMSTOPH
 /
 &NAMSWE
 /
 &NAMTESTVAR
 /
 &NAMTHLIM
 /
 &NAMTOPH
   ETCVIM=5000.,
   ETNEBU=5000.,
   ETPLUI=5000.,
   XDRMTK=6.0D-7,
   XDRMTP=800.,
   XDRMUK=3.0D-7,
   XDRMUP=800.,
 /
 &NAMTRAJ
 /
 &NAMTRAJP
 /
 &NAMTRANS
 /
 &NAMTRANS0
 /
 &NAMTS
 /
 &NAMVAR
 /
 &NAMVARBC
 /
 &NAMVARBC_AIREP
 /
 &NAMVARBC_ALLSKY
 /
 &NAMVARBC_GBRAD
 /
 &NAMVARBC_MODES
 /
 &NAMVARBC_RAD
 /
 &NAMVARBC_RSONDE
 /
 &NAMVARBC_SFCOBS
 /
 &NAMVARBC_TCWV
 /
 &NAMVARBC_TO3
 /
 &NAMVAREPS
 /
 &NAMVDF
 /
 &NAMVDOZ
 /
 &NAMVOLCANO
 /
 &NAMVRTL
 /
 &NAMVV0
 /
 &NAMVV1
 /
 &NAMVWRK
 /
 &NAMWAVELETJB
 /
 &NAMXFU
   LXCLP=.TRUE.,
   LXCLS=.TRUE.,
   LXFU=.TRUE.,
   LXNEBPA=.TRUE.,
   LXNEBTT=.TRUE.,
   LXNUVCLS=.TRUE.,
   LXPLS=.TRUE.,
   LXPLSG=.TRUE.,
   LXQCLS=.TRUE.,
   LXR=.TRUE.,
   LXSOIL=.FALSE.,
   LXTHW=.TRUE.,
   LXTRT=.TRUE.,
   LXTTCLS=.TRUE.,
   LXVISI=.TRUE.,
   LXXDIAGH=.TRUE.,
   LXXGST=.TRUE.,
   NRAZTS(0)=-49,
   NRAZTS(1)=0,
   NRAZTS(2)=-1,
   NRAZTS(3)=-2,
   NRAZTS(4)=-3,
   NRAZTS(5)=-4,
   NRAZTS(6)=-5,
   NRAZTS(7)=-6,
   NRAZTS(8)=-7,
   NRAZTS(9)=-8,
   NRAZTS(10)=-9,
   NRAZTS(11)=-10,
   NRAZTS(12)=-11,
   NRAZTS(13)=-12,
   NRAZTS(14)=-13,
   NRAZTS(15)=-14,
   NRAZTS(16)=-15,
   NRAZTS(17)=-16,
   NRAZTS(18)=-17,
   NRAZTS(19)=-18,
   NRAZTS(20)=-19,
   NRAZTS(21)=-20,
   NRAZTS(22)=-21,
   NRAZTS(23)=-22,
   NRAZTS(24)=-23,
   NRAZTS(25)=-24,
   NRAZTS(26)=-25,
   NRAZTS(27)=-26,
   NRAZTS(28)=-27,
   NRAZTS(29)=-28,
   NRAZTS(30)=-29,
   NRAZTS(31)=-30,
   NRAZTS(32)=-31,
   NRAZTS(33)=-32,
   NRAZTS(34)=-33,
   NRAZTS(35)=-34,
   NRAZTS(36)=-35,
   NRAZTS(37)=-36,
   NRAZTS(38)=-37,
   NRAZTS(39)=-38,
   NRAZTS(40)=-39,
   NRAZTS(41)=-40,
   NRAZTS(42)=-41,
   NRAZTS(43)=-42,
   NRAZTS(44)=-43,
   NRAZTS(45)=-44,
   NRAZTS(46)=-45,
   NRAZTS(47)=-46,
   NRAZTS(48)=-47,
   NRAZTS(49)=-48,
 /
 &NAM_ASSIM
 /
 &NAM_CANAPE
 /
 &NAM_DISTRIBUTED_VECTORS
 /
 &NAM_REPROD_OPER
 /
 &NAPHLC
 /
 &NEMCT0
 /
 &NEMDIM
 /
 &NEMDYN
 /
 &NEMELBC0A
 /
 &NEMELBC0B
   NEFRSPCPL=1,
   NEK0=20,
   NEK1=30,
   NEN1=4,
   NEN2=8,
   SPNUDDIV=0.01,
   SPNUDQ=0.,
   SPNUDT=0.01,
   SPNUDVOR=0.01,
   TEFRCL=10800.,
 /
 &NEMFPEZO
 /
 &NEMGEO
 /
 &NEMJK
 /
 &NEMVAR
 /
 &NEMWAVELET
 /
 &RADIATION
   CLOUD_FRACTION_THRESHOLD=0.000001,
   CLOUD_INHOM_DECORR_SCALING=1.,
   CLOUD_MIXING_RATIO_THRESHOLD=1.00D-9,
   DIRECTORY_NAME='.',
   DO_CLEAR=.TRUE.,
   DO_FU_LW_ICE_OPTICS_BUG=.FALSE.,
   DO_LW_AEROSOL_SCATTERING=.FALSE.,
   DO_LW_CLOUD_SCATTERING=.FALSE.,
   DO_LW_DERIVATIVES=.TRUE.,
   DO_SAVE_GPOINT_FLUX=.FALSE.,
   DO_SAVE_RADIATIVE_PROPERTIES=.FALSE.,
   DO_SAVE_SPECTRAL_FLUX=.FALSE.,
   DO_SURFACE_SW_SPECTRAL_FLUX=.TRUE.,
   DO_SW_DELTA_SCALING_WITH_GASES=.FALSE.,
   GAS_MODEL_NAME='RRTMG-IFS',
   ICE_MODEL_NAME='Fu-IFS',
   IVERBOSE=1,
   IVERBOSESETUP=3,
   LIQUID_MODEL_NAME='Nielsen',
   LW_SOLVER_NAME='McICA',
   OVERLAP_SCHEME_NAME='Exp-Ran',
   SW_SOLVER_NAME='McICA',
   USE_AEROSOLS=.TRUE.,
   USE_BETA_OVERLAP=.FALSE.,
 /
