 &NAMJG
   CONFIG%L3DBGERR=.TRUE.,
   CONFIG%LBALSTRATO=.FALSE.,
   CONFIG%LCLMSFCE=.TRUE.,
   CONFIG%LCORCOSU=.TRUE.,
   CONFIG%LCORCOSU_VCOR=.TRUE.,
   CONFIG%LJB_NONLINEAR_BALANCE=.TRUE.,
   CONFIG%LJB_OMEGA_BALANCE=.TRUE.,
   CONFIG%LRDQERR=.TRUE.,
   CONFIG%LREDNMCQ=.TRUE.,
   CONFIG%LSBLATLONG=.FALSE.,
   CONFIG%NGEOCOR=1,
   CONFIG%NLEVBAL0=36,
   CONFIG%NLEVBAL1=47,
   CONFIG%REDNMC=0.7,
   CONFIG%REDNMC_Q=1.,
 /
 &NAMXFU
   LXCLS=.TRUE.,
   LXFU=.TRUE.,
   LXNUVCLS=.TRUE.,
 /
