 &NAMOOPSWRITE
   CDMEXP='ANFT',
   LINC=.TRUE.,
   LUPDATECLIM=.TRUE.,
   LWRSPEC=.TRUE.,
   LWRSPECA_GP=.FALSE.,
   LWRSPECA_GP_UV=.FALSE.,
 /
