 &NAMDFI
   QNORM_ADJUST_DIV=1.,
   QNORM_ADJUST_LNSP=1.,
   QNORM_ADJUST_Q=0.,
   QNORM_ADJUST_T=0.,
   QNORM_ADJUST_VOR=0.,
 /
