 &NAMDIM
   NPROMA=-14,
 /
 &NAMTRANS
   LFFTW=.TRUE.,
 /
