 &NACIETEO
 /
 &NACOBS
 /
 &NACTAN
 /
 &NACTEX
 /
 &NACVEG
 /
 &NADOCK
 /
 &NAEAEM7
 /
 &NAEAER
 /
 &NAECOAPHY
 /
 &NAEPHLI
 /
 &NAEPHY
 /
 &NAERAD
   LSRTM=.FALSE.,
 /
 &NAERCLI
 /
 &NAETLDIAG
 /
 &NAEVOL
 /
 &NAIMPO
 /
 &NALORI
 /
 &NAMACV
 /
 &NAMAERDET
 /
 &NAMAFN
 /
 &NAMARG
   CNMEXP=__CEXP__,
   LSLAG=.TRUE.,
   NCONF=903,
   NFPSERVER=1,
   NSUPERSEDE=1,
 /
 &NAMARPHY
 /
 &NAMCA
 /
 &NAMCAPE
   GCAPEPSD=0.5,
   LADAE=.TRUE.,
   LMCAPEA=.TRUE.,
 /
 &NAMCFU
   LCUMFU=.TRUE.,
   LFDUTP=.TRUE.,
   LFLASH=.TRUE.,
   LFPLC=.TRUE.,
   LFPLS=.TRUE.,
   LFR=.TRUE.,
   LFRRC=.TRUE.,
   LFSF=.TRUE.,
   LMOON=.TRUE.,
   LNEBPAR=.TRUE.,
   LRAYD=.TRUE.,
   LRAYS=.TRUE.,
   LSTRD=.TRUE.,
   LSTRT=.TRUE.,
 /
 &NAMCHEM
 /
 &NAMCHET
 /
 &NAMCHK
 /
 &NAMCLA
 /
 &NAMCLDP
 /
 &NAMCLI
 /
 &NAMCLOP15
 /
 &NAMCLTC
 /
 &NAMCMEM_MW
 /
 &NAMCOK
 /
 &NAMCOM
 /
 &NAMCOMPO
 /
 &NAMCOSJO
 /
 &NAMCOUPLO4
 /
 &NAMCT0
   CFPNCF=__IOPOLL_WHITNESSFILE__,
   CNPPATH='.',
   CSCRIPT_PPSERVER=__SERVERSYNC_SCRIPT__,
   LSPRT=.TRUE.,
   NFPOS=1,
   NFRPOS=__INPUTDATALEN__,
   NPOSTS(0)=0,
 /
 &NAMCT1
   LRFILAF=.FALSE.,
 /
 &NAMCUMF
 /
 &NAMCUMFS
 /
 &NAMCVER
   NVFE_TYPE=3,
 /
 &NAMCVMNH
 /
 &NAMDDH
 /
 &NAMDFI
 /
 &NAMDIM
   NPROMA=-16,
 /
 &NAMDIMO
 /
 &NAMDIM_TRAJ
 /
 &NAMDPHY
 /
 &NAMDPRECIPS
 /
 &NAMDVISI
 /
 &NAMDYN
 /
 &NAMDYNA
 /
 &NAMDYNCORE
 /
 &NAMEMIS_CONF
 /
 &NAMENKF
 /
 &NAMENSCOV
 /
 &NAMFA
   YFACLF%NBITS=6,
   YFAIRAD%NBITS=12,
   YFALRAD%NBITS=12,
   YFATKE%NBITS=16,
   YFA_MXCLWC2%CLNAME='CLD_WX_180M',
   YFA_VISICLD2%CLNAME='CLSVISIN_180',
   YFA_VISIHYD2%CLNAME='CLSVISIHYDN180',
   YFA_XPTYPE2%CLNAME='CLSPTYPE_180M',
   YFA_XPTYPESEV2%CLNAME='CLSPTYPESEV_180M',
   YFA_XUGST2%CLNAME='CLSU.RAF180M.XFU',
   YFA_XVGST2%CLNAME='CLSV.RAF180M.XFU',
 /
 &NAMFAINIT
 /
 &NAMFPC
   LFPCAPEX=.TRUE.,
   NFPCLI=1,
 /
 &NAMFPD
 /
 &NAMFPDY2
 /
 &NAMFPDYF
 /
 &NAMFPDYH
 /
 &NAMFPDYI
 /
 &NAMFPDYP
 /
 &NAMFPDYS
 /
 &NAMFPDYT
 /
 &NAMFPDYV
 /
 &NAMFPF
 /
 &NAMFPG
 /
 &NAMFPIOS
 /
 &NAMFPMOVE
 /
 &NAMFPOBJ
 /
 &NAMFPPHY
 /
 &NAMFPSC2
 /
 &NAMFPSC2_DEP
 /
 &NAMGEM
 /
 &NAMGFL
   YA_NL%LGP=.TRUE.,
   YA_NL%LREQOUT=.TRUE.,
   YA_NL%NREQIN=1,
   YIRAD_NL%LGP=.TRUE.,
   YIRAD_NL%LREQOUT=.TRUE.,
   YIRAD_NL%NREQIN=1,
   YLRAD_NL%LGP=.TRUE.,
   YLRAD_NL%LREQOUT=.TRUE.,
   YLRAD_NL%NREQIN=1,
   YTKE_NL%LGP=.TRUE.,
   YTKE_NL%LREQOUT=.TRUE.,
   YTKE_NL%NREQIN=1,
 /
 &NAMGRIB
 /
 &NAMGWD
 /
 &NAMGWDIAG
 /
 &NAMGWWMS
 /
 &NAMIAU
 /
 &NAMICE
 /
 &NAMINI
 /
 &NAMINTFLEX
 /
 &NAMIOMI
 /
 &NAMIOS
 /
 &NAMIO_SERV
 /
 &NAMJBCODES
 /
 &NAMJG
 /
 &NAMLCZ
 /
 &NAMLIMA
 /
 &NAMLSFORC
 /
 &NAMMARS
 /
 &NAMMCC
 /
 &NAMMCUF
 /
 &NAMMETHOX
 /
 &NAMMKODB
 /
 &NAMMODERR
 /
 &NAMMTS
 /
 &NAMMWAVE
 /
 &NAMNORGWD
 /
 &NAMNPROF
 /
 &NAMNUD
 /
 &NAMNUDGLH
 /
 &NAMOBS
 /
 &NAMONEDVAR
 /
 &NAMOOPS
 /
 &NAMOPH
 /
 &NAMOPTCMEM
 /
 &NAMPAR0
   MBX_SIZE=2048000000,
   MP_TYPE=2,
   NOUTPUT=1,
   NPRGPEW=1,
   NPRGPNS='NBPROC',
   NPROC='NBPROC',
   NPRTRV=1,
   NPRTRW='NBPROC',
 /
 &NAMPAR1
   LEQ_REGIONS=.FALSE.,
   LSPLIT=.TRUE.,
   NSTRIN='NBPROC',
   NSTROUT='NBPROC',
 /
 &NAMPARAR
 /
 &NAMPERTOBS
 /
 &NAMPERTPAR
 /
 &NAMPHMSE
 /
 &NAMPHY
   LDPRECIPS=.TRUE.,
   LDPRECIPS2=.TRUE.,
   LEDR=.TRUE.,
   LNEBN=.FALSE.,
   NDPRECPERIOD=__TIMESTEP__,
   NDPRECPERIOD2=__TIMESTEP__,
 /
 &NAMPHY0
 /
 &NAMPHY1
 /
 &NAMPHY2
 /
 &NAMPHY3
 /
 &NAMPHYDS
   LREQIN_VEXTRDI=.TRUE.,
 /
 &NAMPPC
 /
 &NAMPPVI
 /
 &NAMPRE
 /
 &NAMPSOT
 /
 &NAMRAD15
 /
 &NAMRADCMEM
 /
 &NAMRCF
 /
 &NAMRCOEF
 /
 &NAMRES
 /
 &NAMRGRI
 /
 &NAMRINC
 /
 &NAMRIP
   TSTEP=__TIMESTEP__,
 /
 &NAMRIP0
 /
 &NAMRLX
 /
 &NAMSATS
 /
 &NAMSATSIM
 /
 &NAMSCC
 /
 &NAMSCEN
 /
 &NAMSCM
 /
 &NAMSEKF
 /
 &NAMSENS
 /
 &NAMSFXCMP
 /
 &NAMSIMPHL
 /
 &NAMSPNG
 /
 &NAMSPP
 /
 &NAMSPSDT
 /
 &NAMSTA
 /
 &NAMSTOPH
 /
 &NAMSWE
 /
 &NAMTESTVAR
 /
 &NAMTHLIM
 /
 &NAMTOPH
   ETCVIM=1000.,
   ETNEBU=1000.,
 /
 &NAMTRAJ
 /
 &NAMTRAJP
 /
 &NAMTRANS
 /
 &NAMTRANS0
 /
 &NAMTS
 /
 &NAMVAR
 /
 &NAMVARBC
 /
 &NAMVARBC_AIREP
 /
 &NAMVARBC_ALLSKY
 /
 &NAMVARBC_GBRAD
 /
 &NAMVARBC_MODES
 /
 &NAMVARBC_RAD
 /
 &NAMVARBC_RSONDE
 /
 &NAMVARBC_SFCOBS
 /
 &NAMVARBC_TCWV
 /
 &NAMVARBC_TO3
 /
 &NAMVAREPS
 /
 &NAMVDF
 /
 &NAMVDOZ
 /
 &NAMVOLCANO
 /
 &NAMVRTL
 /
 &NAMVV0
 /
 &NAMVV1
 /
 &NAMVWRK
 /
 &NAMWAVELETJB
 /
 &NAMXFU
   LXCLP=.TRUE.,
   LXCLS=.TRUE.,
   LXCTOP=.TRUE.,
   LXFU=.TRUE.,
   LXHHCLS=.TRUE.,
   LXICV=.TRUE.,
   LXNEBPA=.TRUE.,
   LXNEBTT=.TRUE.,
   LXNUVCLS=.TRUE.,
   LXQCLS=.TRUE.,
   LXSNOWDEPTH=.TRUE.,
   LXTGST=.TRUE.,
   LXTTCLS=.TRUE.,
   LXVISI=.TRUE.,
   LXVISI2=.TRUE.,
   LXXGST=.TRUE.,
   LXXGST2=.TRUE.,
   NVISIPERIOD2=10800,
   NXGSTPERIOD2=10800,
 /
 &NAM_ASSIM
 /
 &NAM_CANAPE
 /
 &NAM_DISTRIBUTED_VECTORS
 /
 &NAM_REPROD_OPER
 /
 &NAPHLC
 /
 &NEMCT0
 /
 &NEMDIM
 /
 &NEMDYN
 /
 &NEMELBC0A
 /
 &NEMELBC0B
 /
 &NEMFPEZO
 /
 &NEMGEO
 /
 &NEMJK
 /
 &NEMVAR
 /
 &NEMWAVELET
 /
 &RADIATION
 /
