 &NAMSATS
   LPARTIAL_COEF_FILES=.TRUE.,
 /
