 &NAMOBS
   LCORGRADT=.TRUE.,
   LMKCMARPL=.FALSE.,
   LSLREJ=.TRUE.,
   L_F_SCR_WORK_TS=.FALSE.,
   NOBSHOR=201,
 /
