 &NAMOBS
   LMKCMARPL=.FALSE.,
   LSLREJ=.TRUE.,
   L_F_SCR_WORK_TS=.FALSE.,
 /
