 &NACIETEO
   ECTERO(1,1,39,1)=1.3,
   ECTERO(1,1,92,1)=5.,
 /
 &NACOBS
 /
 &NACTAN
 /
 &NACTEX
   LAECDS=.FALSE.,
   LAECHK=.FALSE.,
   LAEH2M=.TRUE.,
   LAEHUM=.FALSE.,
   LAEICS=.FALSE.,
   LAEICS_SX=.TRUE.,
   LAEINC=.FALSE.,
   LAEOMF=.TRUE.,
   LAEOMN=.TRUE.,
   LAEPDS=.FALSE.,
   LAERFO=.TRUE.,
   LAESIC=.TRUE.,
   LAESIT=.TRUE.,
   LAESNM=.TRUE.,
   LAESST=.TRUE.,
   LAESTA=.FALSE.,
   LAESTU=.FALSE.,
   LAET2M=.TRUE.,
   LAEUPFLG=.FALSE.,
   LAEUVT=.FALSE.,
   LAEV1M=.FALSE.,
   LAEWIO=.TRUE.,
   NAEINC=0,
   NSEAICE=40,
   NSSTLIS=15,
   RCLIMCA=0.,
   RCLISST=0.1,
   RWPIB=2.,
 /
 &NACVEG
   ANEBUL=0.75,
   LHUMID=.TRUE.,
   LIMVEG=.TRUE.,
   LISSEW=.FALSE.,
   L_SM_WP=.FALSE.,
   MINDJ=6,
   NNEBUL=1,
   NNEIGT=0,
   NNEIGW=1,
   RCLIMN=0.,
   RCLIMSN=1.,
   RCLIMTP=1.,
   RCLIMTS=0.,
   RCLIMV=1.,
   RCLIMWP=0.1,
   RCLIMWS=0.,
   SCOEFH=0.,
   SCOEFT=0.,
   SEVAP=0.,
   SICE=5.,
   SIGH2MO=0.1,
   SIGT2MO=1.,
   SMU0=7.,
   SNEIGT=1.,
   SNEIGW=0.,
   SPRECIP=0.3,
   SWFC=1.,
   V10MX=10.,
 /
 &NADOCK
   NMXGBA(1)=2500,0,0,800,0,0,0,0,0,0,
   NMXGQA(1)=100,0,0,20,0,0,0,0,0,0,
   QCORMIN(1)=0.05,0.05,0.05,0.05,0.05,0.05,0.05,0.05,0.01,0.,
 /
 &NAEAEM7
 /
 &NAEAER
 /
 &NAECOAPHY
 /
 &NAEPHLI
 /
 &NAEPHY
 /
 &NAERAD
   LSRTM=.FALSE.,
 /
 &NAERCLI
 /
 &NAETLDIAG
 /
 &NAEVOL
 /
 &NAIMPO
 /
 &NALORI
   LCORRF=.TRUE.,
   LMESCAN=.TRUE.,
   RCALPH=0.05,
   RCORT2(1)=0.5,0.001,
 /
 &NAMACV
 /
 &NAMAERDET
 /
 &NAMAFN
 /
 &NAMARG
 /
 &NAMARPHY
 /
 &NAMCA
 /
 &NAMCAPE
 /
 &NAMCFU
 /
 &NAMCHEM
 /
 &NAMCHET
 /
 &NAMCHK
 /
 &NAMCLA
 /
 &NAMCLDP
 /
 &NAMCLI
 /
 &NAMCLOP15
 /
 &NAMCLTC
 /
 &NAMCMEM_MW
 /
 &NAMCOK
 /
 &NAMCOM
 /
 &NAMCOMPO
 /
 &NAMCOSJO
 /
 &NAMCOUPLO4
 /
 &NAMCT0
 /
 &NAMCT1
 /
 &NAMCUMF
 /
 &NAMCUMFS
 /
 &NAMCVER
 /
 &NAMCVMNH
 /
 &NAMDDH
 /
 &NAMDFI
 /
 &NAMDIM
   NPROMA=-16,
 /
 &NAMDIMO
 /
 &NAMDIM_TRAJ
 /
 &NAMDPHY
   LDIRSICMOD=.TRUE.,
 /
 &NAMDPRECIPS
 /
 &NAMDVISI
 /
 &NAMDYN
   SIPR=100000.,
   SITR=350.,
   XIDT=0.,
 /
 &NAMDYNA
 /
 &NAMDYNCORE
 /
 &NAMEMIS_CONF
 /
 &NAMENKF
 /
 &NAMENSCOV
 /
 &NAMFA
   NBITCS=30,
   NBITPG=30,
 /
 &NAMFAINIT
 /
 &NAMFPC
 /
 &NAMFPD
 /
 &NAMFPDY2
 /
 &NAMFPDYF
 /
 &NAMFPDYH
 /
 &NAMFPDYI
 /
 &NAMFPDYP
 /
 &NAMFPDYS
 /
 &NAMFPDYT
 /
 &NAMFPDYV
 /
 &NAMFPF
 /
 &NAMFPG
 /
 &NAMFPIOS
 /
 &NAMFPMOVE
 /
 &NAMFPOBJ
 /
 &NAMFPPHY
 /
 &NAMFPSC2
 /
 &NAMFPSC2_DEP
 /
 &NAMGEM
 /
 &NAMGFL
 /
 &NAMGRIB
 /
 &NAMGWD
 /
 &NAMGWDIAG
 /
 &NAMGWWMS
 /
 &NAMIAU
 /
 &NAMICE
 /
 &NAMINI
 /
 &NAMINTFLEX
 /
 &NAMIOMI
 /
 &NAMIOS
 /
 &NAMIO_SERV
 /
 &NAMJBCODES
 /
 &NAMJG
 /
 &NAMLCZ
 /
 &NAMLIMA
 /
 &NAMLSFORC
 /
 &NAMMARS
 /
 &NAMMCC
 /
 &NAMMCUF
 /
 &NAMMETHOX
 /
 &NAMMKODB
 /
 &NAMMODERR
 /
 &NAMMTS
 /
 &NAMMWAVE
 /
 &NAMNORGWD
 /
 &NAMNPROF
 /
 &NAMNUD
 /
 &NAMNUDGLH
 /
 &NAMOBS
   LMKCMARPL=.FALSE.,
   LSLREJ=.TRUE.,
   L_F_SCR_WORK_TS=.FALSE.,
 /
 &NAMONEDVAR
 /
 &NAMOOPS
 /
 &NAMOPH
 /
 &NAMOPTCMEM
 /
 &NAMPAR0
 /
 &NAMPAR1
 /
 &NAMPARAR
 /
 &NAMPERTOBS
 /
 &NAMPERTPAR
 /
 &NAMPHMSE
   LPGDFWR=.FALSE.,
 /
 &NAMPHY
   LCONDWT=.TRUE.,
   LNEBN=.FALSE.,
   LVGSN=.TRUE.,
 /
 &NAMPHY0
   EDD=1.,
   EDK=1.,
   USURIC=0.175,
   USURICL=1.,
   USURID=0.1,
 /
 &NAMPHY1
 /
 &NAMPHY2
   XMULAF=0.,
 /
 &NAMPHY3
 /
 &NAMPHYDS
 /
 &NAMPPC
 /
 &NAMPPVI
 /
 &NAMPRE
   IPRSA(1,5)=39,
   IPRSA(1,6)=58,
   IPRSA(1,8)=92,
   IPRSA(1,9)=11,
 /
 &NAMPSOT
 /
 &NAMRAD15
 /
 &NAMRADCMEM
 /
 &NAMRCF
 /
 &NAMRCOEF
 /
 &NAMRES
 /
 &NAMRGRI
 /
 &NAMRINC
 /
 &NAMRIP
 /
 &NAMRIP0
 /
 &NAMRLX
 /
 &NAMSATS
 /
 &NAMSATSIM
 /
 &NAMSCC
 /
 &NAMSCEN
 /
 &NAMSCM
 /
 &NAMSEKF
 /
 &NAMSENS
 /
 &NAMSFXCMP
   CFLDNAME(1)='????????????????',
   NBBITS(1)=24,
   NVGRIBSFX=123,
 /
 &NAMSIMPHL
 /
 &NAMSPNG
 /
 &NAMSPP
 /
 &NAMSPSDT
 /
 &NAMSTA
 /
 &NAMSTOPH
 /
 &NAMSWE
 /
 &NAMTESTVAR
 /
 &NAMTHLIM
 /
 &NAMTOPH
 /
 &NAMTRAJ
 /
 &NAMTRAJP
 /
 &NAMTRANS
 /
 &NAMTRANS0
 /
 &NAMTS
 /
 &NAMVAR
 /
 &NAMVARBC
 /
 &NAMVARBC_AIREP
 /
 &NAMVARBC_ALLSKY
 /
 &NAMVARBC_GBRAD
 /
 &NAMVARBC_MODES
 /
 &NAMVARBC_RAD
 /
 &NAMVARBC_RSONDE
 /
 &NAMVARBC_SFCOBS
 /
 &NAMVARBC_TCWV
 /
 &NAMVARBC_TO3
 /
 &NAMVAREPS
 /
 &NAMVDF
 /
 &NAMVDOZ
 /
 &NAMVOLCANO
 /
 &NAMVRTL
 /
 &NAMVV0
 /
 &NAMVV1
 /
 &NAMVWRK
 /
 &NAMWAVELETJB
 /
 &NAMXFU
 /
 &NAM_ASSIM
 /
 &NAM_CANAPE
   REF_A_H2=190000.,
   REF_A_SN=100000.,
   REF_A_T2=190000.,
   REF_S_H2=0.18,
   REF_S_SN=5.,
   REF_S_T2=1.6,
 /
 &NAM_DISTRIBUTED_VECTORS
 /
 &NAM_REPROD_OPER
 /
 &NAPHLC
 /
 &NEMCT0
 /
 &NEMDIM
 /
 &NEMDYN
 /
 &NEMELBC0A
 /
 &NEMELBC0B
 /
 &NEMFPEZO
 /
 &NEMGEO
 /
 &NEMJK
 /
 &NEMVAR
 /
 &NEMWAVELET
 /
 &RADIATION
 /
