 &NAMFA
   YFAI%CLNAME='ICE CRYSTAL',
   YFAL%CLNAME='CLOUD WATER',
 /
