 &NAMFA
   LSUPPDATE=.FALSE.,
 /
 &NAMOPH
   CFNHWF='ECHIS',
   NTIMEFMT=1,
 /
