 &NAMFA
   CMODEL=__OUTPUTID__,
   LEXTERN=.TRUE.,
   YFA_MXCLWC%CLNAME='CLD_WX_60M',
   YFA_VISICLD%CLNAME='CLSVISIN_60',
   YFA_VISIHYD%CLNAME='CLSVISIHYDN60',
   YFA_XPTYPE%CLNAME='CLSPTYPE_60M',
   YFA_XPTYPESEV%CLNAME='CLSPTYPESEV_60M',
   YFA_XUGST%CLNAME='CLSU.RAF60M.XFU',
   YFA_XVGST%CLNAME='CLSV.RAF60M.XFU',
 /
