 &NAMFA
   LSUPPDATE=.FALSE.,
 /
 &NAMIO_SERV
   NPROC_IO=0,
 /
 &NAMOPH
   CFNHWF='ECHIS',
 /
