 &NAMFA
   YFAI%NBITS=16,
   YFAL%NBITS=16,
   YFAR%NBITS=16,
   YFAS%NBITS=16,
 /
