 &NAMFA
   YFAG='GRAUPEL',
   YFAI='ICE_CRYSTAL',
   YFAI%NBITS=12,
   YFAL='CLOUD_WATER',
   YFAL%NBITS=12,
   YFAR='RAIN',
   YFAR%NBITS=12,
   YFAS='SNOW',
   YFAS%NBITS=12,
 /
