 &NAMOPH
   CFNHWF='ECHIS',
   NTIMEFMT=1,
 /
