 &NAMFA
   YFAR%CLNAME='RAIN',
   YFAS%CLNAME='SNOW',
   YFATKE%CLNAME='TKE',
 /
 &NAMFPIOS
   NFPXFLD=92,
 /
