 &NAMFPIOS
   CFPCLIFNAME(1)='Const.Clim',
 /
