 &NAMFPIOS
   CFPCLIFNAME(1)='const.t224.000',
 /
