 &NAMFPIOS
   CFPCLIFNAME(1)='./const.clim.globalupd224',
 /
