 &NAMFA
   YFA_XSIC%CLNAME='SEA.ICE.COVER   ',
 /
 &NAMIO_SERV
   NIO_SERV_BUF_MAXSIZE=20,
   NIO_SERV_METHOD=2,
   NMSG_LEVEL_CLIENT=1,
   NMSG_LEVEL_SERVER=1,
   NPROCESS_LEVEL=5,
   NPROC_IO='NBPROC_IO',
 /
