 &NAMFPIOS
   CFAMODEL(1)=__FP_CMODEL__,
 /
