 &NAMFA
   YFAI%NBITS=8,
   YFAL%NBITS=8,
   YFAR%NBITS=8,
   YFAS%NBITS=8,
   YFA_XSIC%CLNAME='SEA.ICE.COVER   ',
 /
