 &NAMFPIOS
   CFPCLIFNAME(1)='const.t499.000',
 /
