 &NAMFA
   YFAR%CLNAME='RAIN',
   YFAS%CLNAME='SNOW',
   YFATKE%CLNAME='TKE',
 /
