 &NAMFA
   YFACLF%NBITS=6,
   YFAIRAD%NBITS=12,
   YFALRAD%NBITS=12,
   YFATKE%NBITS=16,
   YFA_MXCLWC2%CLNAME='CLD_WX_180M',
   YFA_VISICLD2%CLNAME='CLSVISIN_180',
   YFA_VISIHYD2%CLNAME='CLSVISIHYDN180',
   YFA_XPTYPE2%CLNAME='CLSPTYPE_180M',
   YFA_XPTYPESEV2%CLNAME='CLSPTYPESEV_180M',
   YFA_XUGST2%CLNAME='CLSU.RAF180M.XFU',
   YFA_XVGST2%CLNAME='CLSV.RAF180M.XFU',
 /
