 &NACIETEO
 /
 &NACOBS
 /
 &NACTAN
 /
 &NACTEX
 /
 &NACVEG
 /
 &NADOCK
 /
 &NAEAEM7
 /
 &NAEAER
 /
 &NAECOAPHY
 /
 &NAEPHLI
 /
 &NAEPHY
 /
 &NAERAD
   LSRTM=.FALSE.,
 /
 &NAERCLI
 /
 &NAETLDIAG
 /
 &NAEVOL
 /
 &NAIMPO
 /
 &NALORI
 /
 &NAMACV
 /
 &NAMAERDET
 /
 &NAMAFN
   TFP_I%CLNAME='ICE_CRYSTAL',
   TFP_L%CLNAME='CLOUD_WATER',
 /
 &NAMARG
   CNMEXP=__CEXP__,
   LELAM=.FALSE.,
   LSLAG=.TRUE.,
   NCONF=903,
   NFPSERVER=1,
   NSUPERSEDE=1,
 /
 &NAMARPHY
   LMSE=.FALSE.,
 /
 &NAMCA
 /
 &NAMCAPE
 /
 &NAMCFU
 /
 &NAMCHEM
 /
 &NAMCHET
 /
 &NAMCHK
 /
 &NAMCLA
 /
 &NAMCLDP
 /
 &NAMCLI
 /
 &NAMCLOP15
 /
 &NAMCLTC
 /
 &NAMCMEM_MW
 /
 &NAMCOK
 /
 &NAMCOM
 /
 &NAMCOMPO
 /
 &NAMCOSJO
 /
 &NAMCOUPLO4
 /
 &NAMCT0
   CFPNCF=__IOPOLL_WHITNESSFILE__,
   CSCRIPT_PPSERVER=__SERVERSYNC_SCRIPT__,
   NFPOS=1,
   NFRPOS=__INPUTDATALEN__,
   NPOSTS(0)=0,
   NSPPR=0,
 /
 &NAMCT1
   LRFILAF=.FALSE.,
   N1HIS=0,
 /
 &NAMCUMF
 /
 &NAMCUMFS
 /
 &NAMCVER
 /
 &NAMCVMNH
 /
 &NAMDDH
 /
 &NAMDFI
 /
 &NAMDIM
   NPROMA=-16,
 /
 &NAMDIMO
 /
 &NAMDIM_TRAJ
 /
 &NAMDPHY
 /
 &NAMDPRECIPS
 /
 &NAMDVISI
   HVISI=5.,
 /
 &NAMDYN
 /
 &NAMDYNA
   NDLNPR=1,
 /
 &NAMDYNCORE
 /
 &NAMEMIS_CONF
 /
 &NAMENKF
 /
 &NAMENSCOV
 /
 &NAMFA
 /
 &NAMFAINIT
 /
 &NAMFPC
   CFPDIR='PF',
   CFPDOM='AREA',
   CFPDOM(1)='SELF',
   CFPFMT='LELAM',
   CFPPHY(1)='SURFTEMPERATURE',
   CFPPHY(2)='SURFIND.TERREMER',
   CFPPHY(3)='PROFTEMPERATURE',
   CFPPHY(4)='SURFRESERV.EAU',
   CFPPHY(5)='PROFRESERV.EAU',
   CFPPHY(6)='PROFRESERV.GLACE',
   CFPPHY(7)='SURFRESERV.GLACE',
   CFPPHY(8)='SURFRESERV.NEIGE',
   CFPPHY(9)='SURFPROP.ARGILE',
   CFPPHY(10)='SURFPROP.SABLE',
   CFPPHY(11)='SURFEPAIS.SOL',
   CFPPHY(12)='SURFGEOPOTENTIEL',
   CFPPHY(13)='SEASURFTEMPERATU',
   LTRACEFP=.TRUE.,
   NFPCLI=2,
   NFPMASK=2,
   NFPSURFEX=1,
 /
 &NAMFPD
 /
 &NAMFPDY2
 /
 &NAMFPDYF
 /
 &NAMFPDYH
 /
 &NAMFPDYI
 /
 &NAMFPDYP
 /
 &NAMFPDYS
 /
 &NAMFPDYT
 /
 &NAMFPDYV
 /
 &NAMFPF
 /
 &NAMFPG
 /
 &NAMFPIOS
 /
 &NAMFPMOVE
 /
 &NAMFPOBJ
 /
 &NAMFPPHY
 /
 &NAMFPSC2
   NFPROMA=-16,
 /
 &NAMFPSC2_DEP
   NFPROMA_DEP=-16,
 /
 &NAMGEM
 /
 &NAMGFL
 /
 &NAMGRIB
 /
 &NAMGWD
 /
 &NAMGWDIAG
 /
 &NAMGWWMS
 /
 &NAMIAU
 /
 &NAMICE
 /
 &NAMINI
 /
 &NAMINTFLEX
 /
 &NAMIOMI
 /
 &NAMIOS
 /
 &NAMIO_SERV
 /
 &NAMJBCODES
 /
 &NAMJG
 /
 &NAMLCZ
 /
 &NAMLIMA
 /
 &NAMLSFORC
 /
 &NAMMARS
 /
 &NAMMCC
 /
 &NAMMCUF
 /
 &NAMMETHOX
 /
 &NAMMKODB
 /
 &NAMMODERR
 /
 &NAMMTS
 /
 &NAMMWAVE
 /
 &NAMNORGWD
 /
 &NAMNPROF
 /
 &NAMNUD
 /
 &NAMNUDGLH
 /
 &NAMOBS
 /
 &NAMONEDVAR
 /
 &NAMOOPS
 /
 &NAMOPH
   CCLIMINC='.m',
 /
 &NAMOPTCMEM
 /
 &NAMPAR0
   LMPOFF=.FALSE.,
   MBX_SIZE=2048000000,
   MP_TYPE=2,
   NOUTPUT=1,
   NPRGPEW=1,
   NPRGPNS=__NBPROC__,
   NPROC=__NBPROC__,
 /
 &NAMPAR1
   LSPLIT=.FALSE.,
   NSTRIN=1,
   NSTROUT=1,
 /
 &NAMPARAR
 /
 &NAMPERTOBS
 /
 &NAMPERTPAR
 /
 &NAMPHMSE
 /
 &NAMPHY
   LRAY=.FALSE.,
 /
 &NAMPHY0
 /
 &NAMPHY1
 /
 &NAMPHY2
 /
 &NAMPHY3
 /
 &NAMPHYDS
 /
 &NAMPPC
 /
 &NAMPPVI
 /
 &NAMPRE
 /
 &NAMPSOT
 /
 &NAMRAD15
 /
 &NAMRADCMEM
 /
 &NAMRCF
 /
 &NAMRCOEF
 /
 &NAMRES
 /
 &NAMRGRI
 /
 &NAMRINC
 /
 &NAMRIP
 /
 &NAMRIP0
 /
 &NAMRLX
 /
 &NAMSATS
 /
 &NAMSATSIM
 /
 &NAMSCC
 /
 &NAMSCEN
 /
 &NAMSCM
 /
 &NAMSEKF
 /
 &NAMSENS
 /
 &NAMSFXCMP
   CFLDNAME(1)='????????????????',
   NBBITS(1)=24,
   NVGRIBSFX=123,
 /
 &NAMSIMPHL
 /
 &NAMSPNG
 /
 &NAMSPP
 /
 &NAMSPSDT
 /
 &NAMSTA
 /
 &NAMSTOPH
 /
 &NAMSWE
 /
 &NAMTESTVAR
 /
 &NAMTHLIM
 /
 &NAMTOPH
 /
 &NAMTRAJ
 /
 &NAMTRAJP
 /
 &NAMTRANS
 /
 &NAMTRANS0
 /
 &NAMTS
 /
 &NAMVAR
 /
 &NAMVARBC
 /
 &NAMVARBC_AIREP
 /
 &NAMVARBC_ALLSKY
 /
 &NAMVARBC_GBRAD
 /
 &NAMVARBC_MODES
 /
 &NAMVARBC_RAD
 /
 &NAMVARBC_RSONDE
 /
 &NAMVARBC_SFCOBS
 /
 &NAMVARBC_TCWV
 /
 &NAMVARBC_TO3
 /
 &NAMVAREPS
 /
 &NAMVDF
 /
 &NAMVDOZ
 /
 &NAMVOLCANO
 /
 &NAMVRTL
 /
 &NAMVV0
 /
 &NAMVV1
 /
 &NAMVWRK
 /
 &NAMWAVELETJB
 /
 &NAMXFU
 /
 &NAM_ASSIM
 /
 &NAM_CANAPE
 /
 &NAM_DISTRIBUTED_VECTORS
 /
 &NAM_REPROD_OPER
 /
 &NAPHLC
 /
 &NEMCT0
 /
 &NEMDIM
 /
 &NEMDYN
 /
 &NEMELBC0A
 /
 &NEMELBC0B
 /
 &NEMFPEZO
 /
 &NEMGEO
 /
 &NEMJK
 /
 &NEMVAR
 /
 &NEMWAVELET
 /
 &RADIATION
 /
